
*** ChampSim Multicore Out-of-Order Simulator ***

Warmup Instructions: 2000000
Simulation Instructions: 3000000
Number of CPUs: 1
LLC sets: 2048
LLC ways: 128
Off-chip DRAM Size: 4096 MB Channels: 1 Width: 64-bit Data Rate: 3200 MT/s

CPU 0 runs ../traces//cadical-high-60K-113B.champsimtrace.xz
CPU 0 Bimodal branch predictor
1 1 after1 1 after1 1 after1 1 after1 1 after1 1 after1 1 after1 1 after1 1 after1 1 after1 1 after1 1 after1 1 after1 1 after1 1 after1 1 after1 1 after1 1 after1 1 after1 1 after1 1 after1 1 after1 1 after1 1 after1 1 after1 1 after1 1 after1 1 after1 1 after1 1 after1 1 after1 1 after1 1 after1 1 after1 1 after1 1 after1 1 after1 1 after1 1 after1 1 after1 1 after1 1 after1 1 after1 1 after1 1 after1 1 after1 1 after1 1 after1 1 after1 1 after1 1 after1 1 after1 1 after1 1 after1 1 after1 1 after1 1 after1 1 after1 1 after1 1 after1 1 after1 1 after1 1 after1 1 after1 1 after1 1 after1 1 after1 1 after1 1 after1 1 after1 1 after1 1 after1 1 after1 1 after1 1 after1 1 after1 1 after1 1 after1 1 after1 1 after1 1 after1 1 after1 1 after1 1 after1 1 after1 1 after1 1 after1 1 after1 1 after1 1 after1 1 after1 1 after1 1 after1 1 after1 1 after1 1 after1 1 after1 1 after1 1 after1 1 after1 1 after1 1 after1 1 after1 1 after1 1 after1 1 after1 1 after1 1 after1 1 after1 1 after1 1 after1 1 after1 1 after1 1 after1 1 after1 1 after1 1 after1 1 after1 1 after1 1 after1 1 after1 1 after1 1 after1 1 after1 1 after1 1 after1 1 after1 1 after1 1 after1 1 after1 1 after1 1 after1 1 after1 1 after1 1 after1 1 after1 1 after1 1 after1 1 after1 1 after1 1 after1 1 after1 1 after1 1 after1 1 after1 1 after1 1 after1 1 after1 1 after1 1 after1 1 after1 1 after1 1 after1 1 after1 1 after1 1 after1 1 after1 1 after1 1 after1 1 after1 1 after1 1 after1 1 after1 1 after1 1 after1 1 after1 1 after1 1 after1 1 after1 1 after1 1 after1 1 after1 1 after1 1 after1 1 after1 1 after1 1 after1 1 after1 1 after1 1 after1 1 after1 1 after1 1 after1 1 after1 1 after1 1 after1 1 after1 1 after1 1 after1 1 after1 1 after1 1 after1 1 after1 1 after1 1 after1 1 after1 1 after1 1 after1 1 after1 1 after1 1 after1 1 after1 1 after1 1 after1 1 after1 1 after1 1 after1 1 after1 1 after1 1 after1 1 after1 1 after1 1 after1 1 after1 1 after1 1 after1 1 after1 1 after1 1 after1 1 after1 1 after1 1 after1 1 after1 1 after1 1 after1 1 after1 1 after1 1 after1 1 after1 1 after1 1 after1 1 after1 1 after1 1 after1 1 after1 1 after1 1 after1 1 after1 1 after1 1 after1 1 after1 1 after1 1 after1 1 after1 1 after1 1 after1 1 after1 1 after1 1 after1 1 after1 1 after1 1 after1 1 after1 1 after1 1 after1 1 after1 1 after1 1 after1 1 after1 1 after1 1 after1 1 after1 1 after1 1 after1 1 after1 1 after1 1 after1 1 after1 1 after1 1 after1 1 after1 1 after1 1 after1 1 after1 1 after1 1 after1 1 after1 1 after1 1 after1 1 after1 1 after1 1 after1 1 after1 1 after1 1 after1 1 after1 1 after1 1 after1 1 after1 1 after1 1 after1 1 after1 1 after1 1 after1 1 after1 1 after1 1 after1 1 after1 1 after1 1 after1 1 after1 1 after1 1 after1 1 after1 1 after1 1 after1 1 after1 1 after1 1 after1 1 after1 1 after1 1 after1 1 after1 1 after1 1 after1 1 after1 1 after1 1 after1 1 after1 1 after1 1 after1 1 after1 1 after1 1 after1 1 after1 1 after1 1 after1 1 after1 1 after1 1 after1 1 after1 1 after1 1 after1 1 after1 1 after1 1 after1 1 after2 2 after1 1 after1 1 after1 1 after1 1 after1 1 after1 1 after1 1 after2 2 after1 1 after1 1 after1 1 after1 1 after1 1 after1 1 after2 2 after1 1 after1 1 after1 1 after1 1 after1 1 after1 1 after1 1 after1 1 after1 1 after1 1 after1 1 after1 1 after2 2 after1 1 after1 1 after1 1 after1 1 after1 1 after1 1 after1 1 after1 1 after1 1 after1 1 after1 1 after1 1 after1 1 after1 1 after1 1 after1 1 after1 1 after1 1 after2 2 after2 2 after1 1 after1 1 after1 1 after1 1 after1 1 after1 1 after1 1 after1 1 after1 1 after1 1 after1 1 after1 1 after1 1 after2 2 after1 1 after1 1 after1 1 after1 1 after2 2 after1 1 after1 1 after1 1 after1 1 after1 1 after1 1 after1 1 after1 1 after1 1 after1 1 after1 1 after1 1 after1 1 after1 1 after1 1 after1 1 after1 1 after1 1 after1 1 after2 2 after1 1 after1 1 after1 1 after1 1 after1 1 after1 1 after1 1 after1 1 after1 1 after1 1 after1 1 after1 1 after1 1 after1 1 after1 1 after1 1 after1 1 after1 1 after1 1 after2 2 after1 1 after1 1 after1 1 after1 1 after1 1 after1 1 after1 1 after1 1 after1 1 after1 1 after1 1 after1 1 after1 1 after1 1 after1 1 after1 1 after1 1 after1 1 after1 1 after1 1 after1 1 after1 1 after1 1 after1 1 after1 1 after2 2 after1 1 after2 2 after2 2 after1 1 after1 1 after1 1 after1 1 after1 1 after1 1 after1 1 after1 1 after1 1 after1 1 after1 1 after1 1 after1 1 after1 1 after1 1 after1 1 after1 1 after1 1 after2 2 after2 2 after1 1 after1 1 after1 1 after1 1 after1 1 after1 1 after1 1 after1 1 after1 1 after2 2 after2 2 after1 1 after1 1 after1 1 after1 1 after1 1 after1 1 after1 1 after1 1 after1 1 after1 1 after1 1 after1 1 after1 1 after1 1 after2 2 after1 1 after1 1 after1 1 after1 1 after2 2 after1 1 after1 1 after1 1 after1 1 after1 1 after1 1 after1 1 after1 1 after1 1 after1 1 after1 1 after2 2 after1 1 after1 1 after1 1 after1 1 after1 1 after1 1 after1 1 after2 2 after1 1 after2 2 after1 1 after1 1 after1 1 after1 1 after1 1 after1 1 after1 1 after1 1 after2 2 after1 1 after1 1 after1 1 after1 1 after1 1 after1 1 after1 1 after1 1 after1 1 after1 1 after1 1 after1 1 after1 1 after1 1 after1 1 after1 1 after1 1 after1 1 after1 1 after1 1 after1 1 after1 1 after2 2 after1 1 after1 1 after1 1 after1 1 after1 1 after1 1 after2 2 after1 1 after1 1 after2 2 after1 1 after1 1 after1 1 after1 1 after2 2 after1 1 after1 1 after1 1 after1 1 after1 1 after1 1 after1 1 after1 1 after1 1 after1 1 after1 1 after2 2 after2 2 after1 1 after1 1 after1 1 after1 1 after1 1 after1 1 after1 1 after1 1 after1 1 after1 1 after1 1 after2 2 after1 1 after1 1 after1 1 after1 1 after1 1 after1 1 after1 1 after1 1 after1 1 after1 1 after1 1 after1 1 after1 1 after1 1 after1 1 after2 2 after1 1 after2 2 after2 2 after2 2 after2 2 after2 2 after1 1 after1 1 after2 2 after1 1 after1 1 after1 1 after1 1 after2 2 after1 1 after1 1 after1 1 after1 1 after1 1 after1 1 after1 1 after1 1 after1 1 after1 1 after1 1 after1 1 after2 2 after1 1 after2 2 after1 1 after1 1 after1 1 after1 1 after1 1 after1 1 after1 1 after1 1 after2 2 after1 1 after1 1 after1 1 after1 1 after1 1 after1 1 after1 1 after1 1 after1 1 after1 1 after1 1 after1 1 after2 2 after1 1 after2 2 after1 1 after1 1 after1 1 after1 1 after1 1 after2 2 after1 1 after1 1 after1 1 after1 1 after1 1 after1 1 after1 1 after1 1 after1 1 after1 1 after1 1 after1 1 after1 1 after1 1 after1 1 after1 1 after1 1 after2 2 after1 1 after2 2 after1 1 after1 1 after2 2 after2 2 after1 1 after1 1 after1 1 after1 1 after1 1 after1 1 after1 1 after2 2 after2 2 after1 1 after1 1 after1 1 after1 1 after1 1 after1 1 after1 1 after1 1 after1 1 after1 1 after1 1 after1 1 after1 1 after1 1 after1 1 after1 1 after1 1 after1 1 after1 1 after1 1 after1 1 after1 1 after1 1 after1 1 after1 1 after1 1 after1 1 after1 1 after2 2 after1 1 after1 1 after1 1 after1 1 after1 1 after1 1 after2 2 after1 1 after1 1 after1 1 after1 1 after1 1 after1 1 after1 1 after1 1 after1 1 after1 1 after2 2 after1 1 after2 2 after1 1 after1 1 after1 1 after1 1 after2 2 after1 1 after1 1 after1 1 after1 1 after1 1 after2 2 after2 2 after1 1 after1 1 after1 1 after1 1 after1 1 after1 1 after1 1 after1 1 after1 1 after2 2 after1 1 after1 1 after1 1 after1 1 after1 1 after1 1 after1 1 after1 1 after1 1 after2 2 after2 2 after2 2 after2 2 after1 1 after1 1 after1 1 after1 1 after2 2 after1 1 after1 1 after1 1 after1 1 after1 1 after1 1 after1 1 after2 2 after1 1 after1 1 after1 1 after1 1 after1 1 after1 1 after1 1 after1 1 after1 1 after2 2 after1 1 after1 1 after1 1 after1 1 after1 1 after1 1 after1 1 after2 2 after1 1 after1 1 after1 1 after1 1 after1 1 after1 1 after1 1 after1 1 after1 1 after1 1 after1 1 after1 1 after1 1 after2 2 after1 1 after1 1 after1 1 after1 1 after1 1 after2 2 after2 2 after1 1 after1 1 after2 2 after1 1 after1 1 after2 2 after1 1 after1 1 after1 1 after1 1 after1 1 after1 1 after1 1 after2 2 after1 1 after1 1 after1 1 after1 1 after1 1 after1 1 after1 1 after2 2 after2 2 after1 1 after1 1 after1 1 after1 1 after1 1 after1 1 after1 1 after1 1 after1 1 after1 1 after1 1 after2 2 after1 1 after1 1 after1 1 after1 1 after1 1 after1 1 after1 1 after1 1 after1 1 after1 1 after1 1 after1 1 after1 1 after2 2 after1 1 after1 1 after2 2 after1 1 after2 2 after1 1 after2 2 after1 1 after1 1 after1 1 after2 2 after2 2 after1 1 after1 1 after1 1 after1 1 after1 1 after2 2 after1 1 after1 1 after1 1 after1 1 after1 1 after1 1 after1 1 after1 1 after1 1 after1 1 after1 1 after1 1 after1 1 after1 1 after1 1 after2 2 after1 1 after1 1 after2 2 after1 1 after2 2 after1 1 after1 1 after1 1 after1 1 after1 1 after1 1 after1 1 after1 1 after1 1 after1 1 after1 1 after1 1 after2 2 after1 1 after1 1 after1 1 after1 1 after1 1 after1 1 after1 1 after1 1 after1 1 after1 1 after1 1 after1 1 after1 1 after1 1 after1 1 after2 2 after2 2 after2 2 after1 1 after1 1 after1 1 after1 1 after1 1 after1 1 after1 1 after1 1 after1 1 after2 2 after1 1 after1 1 after1 1 after1 1 after1 1 after1 1 after1 1 after1 1 after1 1 after1 1 after1 1 after1 1 after1 1 after1 1 after1 1 after1 1 after1 1 after1 1 after2 2 after2 2 after1 1 after1 1 after1 1 after1 1 after1 1 after1 1 after1 1 after1 1 after1 1 after2 2 after1 1 after1 1 after1 1 after1 1 after1 1 after1 1 after1 1 after1 1 after1 1 after2 2 after1 1 after1 1 after1 1 after1 1 after2 2 after1 1 after1 1 after1 1 after1 1 after2 2 after1 1 after1 1 after1 1 after1 1 after1 1 after2 2 after1 1 after1 1 after1 1 after1 1 after1 1 after2 2 after2 2 after1 1 after2 2 after1 1 after1 1 after1 1 after2 2 after1 1 after1 1 after1 1 after1 1 after1 1 after1 1 after1 1 after1 1 after1 1 after1 1 after1 1 after2 2 after2 2 after1 1 after1 1 after1 1 after1 1 after1 1 after1 1 after1 1 after1 1 after1 1 after2 2 after1 1 after1 1 after2 2 after1 1 after2 2 after1 1 after1 1 after1 1 after1 1 after1 1 after1 1 after2 2 after1 1 after1 1 after1 1 after2 2 after2 2 after1 1 after1 1 after1 1 after2 2 after1 1 after1 1 after1 1 after1 1 after1 1 after1 1 after1 1 after1 1 after1 1 after1 1 after1 1 after1 1 after1 1 after1 1 after2 2 after1 1 after2 2 after1 1 after1 1 after1 1 after1 1 after1 1 after1 1 after1 1 after1 1 after2 2 after1 1 after1 1 after1 1 after1 1 after1 1 after1 1 after1 1 after1 1 after1 1 after1 1 after1 1 after1 1 after1 1 after1 1 after1 1 after1 1 after1 1 after1 1 after1 1 after2 2 after2 2 after2 2 after2 2 after2 2 after1 1 after2 2 after1 1 after1 1 after1 1 after1 1 after1 1 after1 1 after1 1 after1 1 after2 2 after1 1 after1 1 after2 2 after1 1 after1 1 after1 1 after1 1 after1 1 after1 1 after1 1 after2 2 after1 1 after1 1 after1 1 after1 1 after1 1 after1 1 after1 1 after1 1 after1 1 after2 2 after1 1 after1 1 after1 1 after1 1 after1 1 after1 1 after1 1 after1 1 after2 2 after1 1 after1 1 after1 1 after1 1 after1 1 after2 2 after1 1 after1 1 after1 1 after1 1 after1 1 after1 1 after1 1 after1 1 after1 1 after1 1 after1 1 after2 2 after1 1 after1 1 after1 1 after1 1 after1 1 after2 2 after1 1 after1 1 after1 1 after1 1 after1 1 after1 1 after1 1 after2 2 after2 2 after1 1 after1 1 after1 1 after1 1 after1 1 after1 1 after1 1 after1 1 after2 2 after1 1 after1 1 after1 1 after1 1 after2 2 after1 1 after1 1 after1 1 after1 1 after1 1 after1 1 after1 1 after1 1 after1 1 after1 1 after1 1 after1 1 after2 2 after1 1 after1 1 after2 2 after1 1 after2 2 after1 1 after1 1 after2 2 after1 1 after1 1 after1 1 after1 1 after1 1 after1 1 after1 1 after2 2 after1 1 after1 1 after1 1 after1 1 after1 1 after1 1 after1 1 after2 2 after1 1 after1 1 after1 1 after1 1 after1 1 after1 1 after1 1 after1 1 after2 2 after1 1 after1 1 after2 2 after1 1 after2 2 after1 1 after2 2 after1 1 after1 1 after1 1 after2 2 after1 1 after1 1 after1 1 after1 1 after1 1 after2 2 after1 1 after1 1 after1 1 after1 1 after1 1 after1 1 after1 1 after1 1 after1 1 after1 1 after1 1 after1 1 after1 1 after1 1 after1 1 after1 1 after1 1 after1 1 after2 2 after2 2 after2 2 after2 2 after1 1 after1 1 after1 1 after1 1 after1 1 after1 1 after1 1 after1 1 after1 1 after2 2 after2 2 after1 1 after1 1 after1 1 after1 1 after1 1 after1 1 after1 1 after1 1 after1 1 after1 1 after1 1 after1 1 after1 1 after1 1 after1 1 after1 1 after1 1 after1 1 after2 2 after1 1 after1 1 after2 2 after1 1 after1 1 after1 1 after1 1 after1 1 after1 1 after2 2 after1 1 after2 2 after1 1 after1 1 after2 2 after1 1 after1 1 after2 2 after1 1 after1 1 after1 1 after1 1 after1 1 after2 2 after2 2 after2 2 after1 1 after1 1 after1 1 after1 1 after1 1 after1 1 after1 1 after1 1 after1 1 after1 1 after1 1 after1 1 after1 1 after1 1 after1 1 after1 1 after1 1 after1 1 after2 2 after2 2 after2 2 after2 2 after1 1 after1 1 after2 2 after1 1 after1 1 after1 1 after1 1 after2 2 after1 1 after1 1 after1 1 after1 1 after1 1 after1 1 after1 1 after1 1 after1 1 after1 1 after2 2 after1 1 after1 1 after1 1 after1 1 after1 1 after1 1 after1 1 after1 1 after1 1 after1 1 after1 1 after2 2 after1 1 after1 1 after2 2 after1 1 after1 1 after2 2 after1 1 after1 1 after1 1 after1 1 after1 1 after1 1 after1 1 after1 1 after1 1 after1 1 after1 1 after1 1 after1 1 after1 1 after1 1 after1 1 after1 1 after1 1 after1 1 after1 1 after1 1 after1 1 after2 2 after1 1 after1 1 after1 1 after1 1 after1 1 after1 1 after1 1 after1 1 after1 1 after2 2 after1 1 after2 2 after1 1 after1 1 after2 2 after1 1 after1 1 after1 1 after1 1 after1 1 after1 1 after1 1 after2 2 after1 1 after1 1 after1 1 after1 1 after1 1 after1 1 after1 1 after1 1 after2 2 after1 1 after2 2 after2 2 after2 2 after1 1 after1 1 after1 1 after1 1 after1 1 after1 1 after1 1 after1 1 after1 1 after1 1 after1 1 after1 1 after1 1 after1 1 after1 1 after1 1 after1 1 after1 1 after1 1 after2 2 after1 1 after2 2 after1 1 after1 1 after1 1 after1 1 after1 1 after1 1 after1 1 after2 2 after2 2 after2 2 after2 2 after1 1 after1 1 after1 1 after1 1 after1 1 after1 1 after1 1 after1 1 after1 1 after1 1 after1 1 after2 2 after1 1 after2 2 after1 1 after1 1 after1 1 after1 1 after1 1 after1 1 after2 2 after2 2 after1 1 after1 1 after1 1 after1 1 after2 2 after2 2 after1 1 after1 1 after1 1 after1 1 after1 1 after2 2 after1 1 after1 1 after2 2 after1 1 after1 1 after1 1 after1 1 after1 1 after1 1 after1 1 after2 2 after2 2 after2 2 after1 1 after1 1 after1 1 after1 1 after2 2 after1 1 after1 1 after1 1 after1 1 after1 1 after1 1 after1 1 after1 1 after2 2 after1 1 after2 2 after1 1 after1 1 after1 1 after2 2 after1 1 after1 1 after1 1 after1 1 after1 1 after1 1 after1 1 after1 1 after2 2 after1 1 after1 1 after2 2 after1 1 after2 2 after1 1 after2 2 after1 1 after1 1 after1 1 after1 1 after1 1 after2 2 after1 1 after1 1 after1 1 after1 1 after1 1 after2 2 after1 1 after1 1 after2 2 after1 1 after1 1 after1 1 after1 1 after1 1 after1 1 after1 1 after1 1 after1 1 after1 1 after1 1 after1 1 after1 1 after1 1 after2 2 after2 2 after1 1 after2 2 after1 1 after1 1 after1 1 after1 1 after1 1 after1 1 after1 1 after1 1 after2 2 after1 1 after1 1 after1 1 after1 1 after1 1 after1 1 after1 1 after1 1 after1 1 after1 1 after1 1 after1 1 after1 1 after1 1 after1 1 after1 1 after1 1 after1 1 after2 2 after1 1 after1 1 after2 2 after1 1 after1 1 after1 1 after1 1 after1 1 after1 1 after1 1 after2 2 after1 1 after1 1 after1 1 after1 1 after2 2 after1 1 after1 1 after1 1 after1 1 after1 1 after2 2 after1 1 after1 1 after1 1 after1 1 after1 1 after1 1 after1 1 after1 1 after1 1 after2 2 after2 2 after1 1 after1 1 after1 1 after1 1 after1 1 after1 1 after1 1 after1 1 after1 1 after1 1 after1 1 after1 1 after2 2 after1 1 after1 1 after1 1 after1 1 after1 1 after1 1 after2 2 after1 1 after1 1 after1 1 after1 1 after1 1 after1 1 after1 1 after1 1 after1 1 after2 2 after1 1 after1 1 after2 2 after1 1 after1 1 after2 2 after1 1 after1 1 after1 1 after1 1 after1 1 after2 2 after1 1 after1 1 after2 2 after1 1 after1 1 after1 1 after1 1 after1 1 after1 1 after1 1 after1 1 after1 1 after1 1 after1 1 after2 2 after1 1 after1 1 after1 1 after1 1 after1 1 after2 2 after1 1 after1 1 after1 1 after1 1 after1 1 after1 1 after2 2 after1 1 after1 1 after2 2 after1 1 after2 2 after1 1 after1 1 after1 1 after1 1 after2 2 after1 1 after1 1 after1 1 after1 1 after1 1 after1 1 after1 1 after1 1 after1 1 after1 1 after1 1 after1 1 after1 1 after1 1 after1 1 after1 1 after1 1 after1 1 after1 1 after1 1 after1 1 after1 1 after1 1 after2 2 after2 2 after2 2 after1 1 after1 1 after1 1 after1 1 after1 1 after1 1 after1 1 after1 1 after1 1 after2 2 after1 1 after1 1 after1 1 after1 1 after1 1 after1 1 after1 1 after1 1 after2 2 after1 1 after1 1 after1 1 after1 1 after1 1 after1 1 after1 1 after1 1 after1 1 after2 2 after1 1 after2 2 after2 2 after1 1 after1 1 after2 2 after1 1 after1 1 after1 1 after1 1 after1 1 after1 1 after1 1 after2 2 after1 1 after1 1 after1 1 after1 1 after2 2 after1 1 after1 1 after1 1 after1 1 after1 1 after2 2 after1 1 after1 1 after2 2 after1 1 after1 1 after1 1 after1 1 after1 1 after1 1 after1 1 after2 2 after2 2 after2 2 after1 1 after1 1 after1 1 after1 1 after1 1 after1 1 after1 1 after1 1 after1 1 after1 1 after1 1 after1 1 after1 1 after1 1 after1 1 after1 1 after1 1 after1 1 after1 1 after1 1 after1 1 after1 1 after2 2 after1 1 after1 1 after2 2 after1 1 after1 1 after1 1 after1 1 after1 1 after2 2 after2 2 after1 1 after1 1 after1 1 after1 1 after1 1 after1 1 after1 1 after2 2 after1 1 after2 2 after1 1 after1 1 after1 1 after1 1 after1 1 after1 1 after1 1 after1 1 after2 2 after1 1 after1 1 after1 1 after1 1 after1 1 after1 1 after2 2 after1 1 after1 1 after1 1 after1 1 after1 1 after1 1 after1 1 after1 1 after1 1 after1 1 after1 1 after1 1 after2 2 after2 2 after1 1 after1 1 after1 1 after1 1 after2 2 after1 1 after1 1 after1 1 after1 1 after1 1 after2 2 after1 1 after1 1 after1 1 after1 1 after2 2 after1 1 after1 1 after1 1 after1 1 after1 1 after1 1 after1 1 after1 1 after1 1 after1 1 after1 1 after2 2 after1 1 after1 1 after1 1 after2 2 after2 2 after1 1 after1 1 after1 1 after1 1 after1 1 after1 1 after1 1 after1 1 after1 1 after2 2 after1 1 after1 1 after1 1 after1 1 after1 1 after1 1 after1 1 after1 1 after1 1 after2 2 after1 1 after1 1 after1 1 after1 1 after1 1 after1 1 after1 1 after1 1 after1 1 after2 2 after2 2 after1 1 after1 1 after1 1 after1 1 after1 1 after1 1 after1 1 after1 1 after1 1 after1 1 after1 1 after1 1 after1 1 after1 1 after1 1 after1 1 after1 1 after1 1 after2 2 after1 1 after1 1 after1 1 after1 1 after1 1 after1 1 after1 1 after1 1 after1 1 after2 2 after2 2 after1 1 after1 1 after2 2 after1 1 after1 1 after1 1 after1 1 after1 1 after1 1 after2 2 after1 1 after2 2 after1 1 after1 1 after1 1 after1 1 after2 2 after1 1 after1 1 after1 1 after1 1 after1 1 after2 2 after1 1 after1 1 after1 1 after1 1 after2 2 after1 1 after1 1 after1 1 after1 1 after2 2 after1 1 after1 1 after1 1 after2 2 after2 2 after1 1 after1 1 after1 1 after1 1 after1 1 after1 1 after2 2 after1 1 after2 2 after1 1 after1 1 after2 2 after1 1 after1 1 after1 1 after1 1 after1 1 after1 1 after1 1 after1 1 after1 1 after1 1 after1 1 after1 1 after1 1 after1 1 after1 1 after1 1 after1 1 after1 1 after1 1 after1 1 after1 1 after1 1 after2 2 after1 1 after1 1 after1 1 after2 2 after2 2 after2 2 after2 2 after1 1 after1 1 after2 2 after1 1 after1 1 after1 1 after1 1 after1 1 after1 1 after1 1 after2 2 after2 2 after1 1 after1 1 after1 1 after1 1 after1 1 after1 1 after1 1 after1 1 after1 1 after1 1 after1 1 after1 1 after1 1 after1 1 after1 1 after1 1 after1 1 after2 2 after1 1 after2 2 after2 2 after1 1 after2 2 after1 1 after1 1 after1 1 after1 1 after1 1 after1 1 after1 1 after1 1 after2 2 after2 2 after1 1 after1 1 after1 1 after1 1 after1 1 after1 1 after1 1 after1 1 after2 2 after1 1 after1 1 after1 1 after1 1 after1 1 after1 1 after1 1 after1 1 after1 1 after1 1 after2 2 after1 1 after1 1 after1 1 after1 1 after2 2 after1 1 after1 1 after1 1 after1 1 after1 1 after1 1 after1 1 after1 1 after1 1 after1 1 after1 1 after1 1 after1 1 after1 1 after2 2 after1 1 after1 1 after1 1 after1 1 after1 1 after1 1 after1 1 after1 1 after1 1 after1 1 after1 1 after2 2 after1 1 after1 1 after1 1 after1 1 after2 2 after1 1 after1 1 after1 1 after1 1 after1 1 after1 1 after1 1 after2 2 after1 1 after1 1 after1 1 after1 1 after1 1 after1 1 after1 1 after1 1 after1 1 after2 2 after1 1 after1 1 after1 1 after1 1 after1 1 after1 1 after1 1 after2 2 after1 1 after1 1 after2 2 after1 1 after1 1 after1 1 after1 1 after2 2 after1 1 after2 2 after1 1 after1 1 after1 1 after1 1 after1 1 after1 1 after1 1 after1 1 after2 2 after1 1 after2 2 after1 1 after1 1 after1 1 after1 1 after1 1 after1 1 after1 1 after1 1 after1 1 after1 1 after1 1 after1 1 after1 1 after1 1 after1 1 after2 2 after1 1 after1 1 after2 2 after1 1 after2 2 after1 1 after1 1 after1 1 after1 1 after1 1 after1 1 after1 1 after1 1 after1 1 after2 2 after2 2 after1 1 after1 1 after1 1 after1 1 after1 1 after1 1 after1 1 after1 1 after1 1 after1 1 after1 1 after1 1 after1 1 after1 1 after1 1 after1 1 after1 1 after2 2 after1 1 after2 2 after1 1 after1 1 after1 1 after1 1 after1 1 after1 1 after1 1 after1 1 after1 1 after1 1 after1 1 after1 1 after2 2 after1 1 after1 1 after1 1 after1 1 after1 1 after1 1 after2 2 after1 1 after1 1 after1 1 after1 1 after1 1 after1 1 after1 1 after1 1 after1 1 after2 2 after2 2 after1 1 after1 1 after1 1 after1 1 after2 2 after1 1 after1 1 after1 1 after1 1 after2 2 after1 1 after1 1 after1 1 after2 2 after2 2 after1 1 after1 1 after1 1 after1 1 after2 2 after1 1 after1 1 after1 1 after1 1 after1 1 after2 2 after1 1 after1 1 after1 1 after1 1 after1 1 after1 1 after1 1 after2 2 after2 2 after2 2 after1 1 after1 1 after2 2 after1 1 after1 1 after1 1 after1 1 after2 2 after1 1 after1 1 after1 1 after1 1 after1 1 after1 1 after2 2 after1 1 after1 1 after1 1 after1 1 after1 1 after1 1 after1 1 after1 1 after1 1 after1 1 after2 2 after1 1 after1 1 after1 1 after1 1 after1 1 after1 1 after1 1 after1 1 after1 1 after2 2 after1 1 after1 1 after1 1 after1 1 after2 2 after1 1 after2 2 after1 1 after1 1 after2 2 after1 1 after1 1 after1 1 after1 1 after1 1 after1 1 after1 1 after2 2 after1 1 after1 1 after2 2 after1 1 after1 1 after2 2 after1 1 after1 1 after1 1 after1 1 after1 1 after1 1 after1 1 after1 1 after1 1 after1 1 after1 1 after1 1 after1 1 after2 2 after1 1 after1 1 after1 1 after2 2 after1 1 after1 1 after1 1 after1 1 after2 2 after1 1 after1 1 after1 1 after2 2 after2 2 after1 1 after1 1 after1 1 after1 1 after2 2 after1 1 after1 1 after1 1 after1 1 after1 1 after1 1 after1 1 after1 1 after1 1 after1 1 after1 1 after2 2 after1 1 after1 1 after1 1 after2 2 after2 2 after1 1 after1 1 after1 1 after1 1 after1 1 after1 1 after1 1 after1 1 after1 1 after1 1 after1 1 after1 1 after2 2 after1 1 after1 1 after1 1 after1 1 after1 1 after1 1 after2 2 after2 2 after1 1 after1 1 after1 1 after1 1 after1 1 after1 1 after1 1 after1 1 after2 2 after1 1 after2 2 after2 2 after2 2 after1 1 after1 1 after1 1 after1 1 after1 1 after1 1 after1 1 after1 1 after1 1 after1 1 after1 1 after1 1 after1 1 after1 1 after1 1 after1 1 after1 1 after1 1 after1 1 after1 1 after2 2 after1 1 after1 1 after1 1 after1 1 after1 1 after1 1 after1 1 after2 2 after2 2 after2 2 after1 1 after1 1 after2 2 after1 1 after1 1 after1 1 after1 1 after1 1 after1 1 after1 1 after2 2 after1 1 after1 1 after1 1 after1 1 after2 2 after1 1 after1 1 after1 1 after1 1 after1 1 after2 2 after1 1 after1 1 after1 1 after1 1 after2 2 after1 1 after1 1 after1 1 after1 1 after1 1 after1 1 after1 1 after1 1 after1 1 after2 2 after1 1 after1 1 after1 1 after1 1 after2 2 after1 1 after2 2 after1 1 after1 1 after1 1 after1 1 after1 1 after1 1 after1 1 after1 1 after1 1 after1 1 after1 1 after1 1 after1 1 after1 1 after1 1 after1 1 after1 1 after1 1 after1 1 after1 1 after1 1 after1 1 after1 1 after1 1 after2 2 after1 1 after1 1 after1 1 after2 2 after1 1 after2 2 after1 1 after1 1 after1 1 after1 1 after1 1 after2 2 after1 1 after1 1 after1 1 after1 1 after1 1 after1 1 after1 1 after1 1 after1 1 after1 1 after1 1 after1 1 after1 1 after1 1 after1 1 after1 1 after1 1 after1 1 after2 2 after1 1 after1 1 after1 1 after2 2 after2 2 after1 1 after1 1 after1 1 after1 1 after2 2 after1 1 after1 1 after1 1 after1 1 after1 1 after2 2 after2 2 after1 1 after1 1 after2 2 after1 1 after1 1 after1 1 after1 1 after1 1 after1 1 after1 1 after1 1 after1 1 after1 1 after1 1 after1 1 after1 1 after1 1 after1 1 after2 2 after1 1 after2 2 after1 1 after1 1 after1 1 after1 1 after1 1 after1 1 after1 1 after1 1 after1 1 after1 1 after1 1 after2 2 after1 1 after1 1 after1 1 after1 1 after1 1 after1 1 after1 1 after1 1 after1 1 after1 1 after1 1 after1 1 after1 1 after1 1 after1 1 after1 1 after2 2 after2 2 after1 1 after1 1 after1 1 after1 1 after1 1 after1 1 after1 1 after1 1 after2 2 after1 1 after2 2 after1 1 after1 1 after1 1 after1 1 after1 1 after1 1 after1 1 after1 1 after1 1 after2 2 after1 1 after1 1 after1 1 after1 1 after2 2 after2 2 after1 1 after1 1 after1 1 after1 1 after2 2 after1 1 after1 1 after1 1 after2 2 after1 1 after1 1 after1 1 after1 1 after1 1 after1 1 after1 1 after2 2 after2 2 after2 2 after2 2 after2 2 after1 1 after1 1 after1 1 after1 1 after1 1 after1 1 after1 1 after1 1 after1 1 after1 1 after1 1 after2 2 after1 1 after1 1 after1 1 after1 1 after1 1 after1 1 after1 1 after1 1 after1 1 after1 1 after1 1 after1 1 after1 1 after1 1 after1 1 after2 2 after1 1 after2 2 after2 2 after1 1 after1 1 after2 2 after1 1 after1 1 after1 1 after1 1 after1 1 after1 1 after1 1 after2 2 after1 1 after1 1 after2 2 after1 1 after1 1 after1 1 after1 1 after2 2 after1 1 after1 1 after1 1 after1 1 after1 1 after1 1 after1 1 after1 1 after1 1 after1 1 after1 1 after1 1 after2 2 after1 1 after1 1 after1 1 after1 1 after2 2 after1 1 after1 1 after1 1 after1 1 after1 1 after1 1 after1 1 after2 2 after1 1 after1 1 after1 1 after1 1 after1 1 after1 1 after2 2 after1 1 after2 2 after1 1 after1 1 after1 1 after1 1 after1 1 after1 1 after1 1 after1 1 after1 1 after2 2 after2 2 after1 1 after1 1 after1 1 after1 1 after1 1 after1 1 after1 1 after1 1 after1 1 after1 1 after1 1 after2 2 after1 1 after1 1 after1 1 after1 1 after1 1 after1 1 after1 1 after2 2 after2 2 after1 1 after1 1 after2 2 after1 1 after1 1 after1 1 after1 1 after1 1 after1 1 after1 1 after1 1 after1 1 after2 2 after1 1 after1 1 after1 1 after1 1 after1 1 after1 1 after2 2 after1 1 after2 2 after1 1 after1 1 after1 1 after1 1 after1 1 after1 1 after1 1 after1 1 after1 1 after2 2 after1 1 after1 1 after1 1 after1 1 after1 1 after1 1 after1 1 after1 1 after1 1 after1 1 after1 1 after1 1 after1 1 after2 2 after1 1 after1 1 after1 1 after1 1 after1 1 after1 1 after1 1 after1 1 after1 1 after1 1 after1 1 after1 1 after1 1 after1 1 after2 2 after1 1 after1 1 after1 1 after1 1 after1 1 after1 1 after2 2 after1 1 after1 1 after1 1 after1 1 after1 1 after1 1 after1 1 after1 1 after1 1 after2 2 after1 1 after1 1 after1 1 after2 2 after1 1 after2 2 after1 1 after2 2 after1 1 after1 1 after1 1 after1 1 after2 2 after1 1 after1 1 after1 1 after2 2 after1 1 after1 1 after1 1 after1 1 after1 1 after1 1 after1 1 after1 1 after1 1 after2 2 after1 1 after1 1 after1 1 after1 1 after1 1 after1 1 after2 2 after1 1 after1 1 after2 2 after2 2 after1 1 after1 1 after1 1 after1 1 after1 1 after2 2 after2 2 after1 1 after1 1 after1 1 after1 1 after2 2 after1 1 after2 2 after1 1 after1 1 after2 2 after1 1 after1 1 after1 1 after1 1 after1 1 after1 1 after1 1 after1 1 after1 1 after1 1 after1 1 after1 1 after1 1 after1 1 after1 1 after2 2 after1 1 after2 2 after2 2 after2 2 after2 2 after1 1 after1 1 after1 1 after1 1 after2 2 after1 1 after1 1 after1 1 after1 1 after1 1 after2 2 after1 1 after1 1 after1 1 after1 1 after1 1 after1 1 after1 1 after1 1 after1 1 after2 2 after2 2 after1 1 after1 1 after1 1 after1 1 after1 1 after1 1 after1 1 after1 1 after1 1 after2 2 after1 1 after1 1 after1 1 after2 2 after1 1 after1 1 after1 1 after1 1 after1 1 after1 1 after2 2 after1 1 after1 1 after2 2 after1 1 after1 1 after2 2 after1 1 after1 1 after1 1 after1 1 after1 1 after2 2 after1 1 after1 1 after1 1 after1 1 after1 1 after1 1 after1 1 after1 1 after1 1 after1 1 after1 1 after1 1 after1 1 after1 1 after1 1 after1 1 after1 1 after1 1 after2 2 after2 2 after2 2 after1 1 after1 1 after1 1 after1 1 after1 1 after1 1 after1 1 after1 1 after1 1 after1 1 after1 1 after1 1 after1 1 after1 1 after1 1 after2 2 after1 1 after1 1 after1 1 after1 1 after1 1 after1 1 after1 1 after1 1 after1 1 after1 1 after1 1 after1 1 after2 2 after1 1 after2 2 after1 1 after2 2 after1 1 after1 1 after1 1 after1 1 after2 2 after1 1 after1 1 after1 1 after2 2 after2 2 after1 1 after1 1 after1 1 after1 1 after2 2 after1 1 after1 1 after1 1 after1 1 after1 1 after1 1 after1 1 after1 1 after1 1 after1 1 after1 1 after1 1 after1 1 after2 2 after2 2 after1 1 after2 2 after2 2 after2 2 after1 1 after1 1 after1 1 after1 1 after1 1 after1 1 after1 1 after1 1 after1 1 after2 2 after1 1 after1 1 after1 1 after2 2 after1 1 after1 1 after1 1 after1 1 after1 1 after1 1 after2 2 after1 1 after1 1 after1 1 after1 1 after1 1 after1 1 after1 1 after1 1 after1 1 after2 2 after2 2 after1 1 after2 2 after1 1 after1 1 after1 1 after2 2 after1 1 after1 1 after1 1 after1 1 after1 1 after1 1 after1 1 after1 1 after1 1 after1 1 after1 1 after2 2 after1 1 after1 1 after1 1 after2 2 after1 1 after1 1 after2 2 after1 1 after1 1 after1 1 after1 1 after1 1 after1 1 after1 1 after2 2 after2 2 after1 1 after1 1 after2 2 after1 1 after1 1 after1 1 after1 1 after1 1 after1 1 after2 2 after1 1 after1 1 after1 1 after2 2 after1 1 after1 1 after1 1 after1 1 after1 1 after1 1 after1 1 after2 2 after1 1 after1 1 after1 1 after1 1 after2 2 after1 1 after1 1 after1 1 after2 2 after1 1 after1 1 after1 1 after1 1 after1 1 after1 1 after1 1 after1 1 after1 1 after1 1 after1 1 after2 2 after2 2 after1 1 after1 1 after2 2 after1 1 after1 1 after1 1 after1 1 after2 2 after2 2 after1 1 after1 1 after1 1 after1 1 after1 1 after1 1 after1 1 after1 1 after1 1 after1 1 after1 1 after1 1 after1 1 after1 1 after1 1 after1 1 after1 1 after1 1 after2 2 after1 1 after1 1 after1 1 after1 1 after2 2 after1 1 after1 1 after1 1 after1 1 after1 1 after1 1 after1 1 after1 1 after2 2 after2 2 after1 1 after1 1 after1 1 after1 1 after1 1 after1 1 after1 1 after1 1 after1 1 after1 1 after1 1 after1 1 after1 1 after1 1 after1 1 after1 1 after1 1 after1 1 after2 2 after2 2 after1 1 after1 1 after1 1 after2 2 after1 1 after1 1 after1 1 after1 1 after1 1 after1 1 after2 2 after1 1 after1 1 after2 2 after1 1 after1 1 after1 1 after1 1 after1 1 after1 1 after1 1 after2 2 after1 1 after1 1 after1 1 after1 1 after1 1 after1 1 after1 1 after1 1 after1 1 after2 2 after2 2 after2 2 after1 1 after1 1 after1 1 after1 1 after1 1 after1 1 after1 1 after1 1 after2 2 after1 1 after2 2 after1 1 after1 1 after2 2 after1 1 after1 1 after1 1 after1 1 after1 1 after1 1 after2 2 after1 1 after2 2 after1 1 after1 1 after1 1 after1 1 after1 1 after1 1 after1 1 after1 1 after1 1 after2 2 after2 2 after1 1 after1 1 after1 1 after1 1 after1 1 after1 1 after1 1 after1 1 after2 2 after1 1 after1 1 after1 1 after1 1 after1 1 after2 2 after1 1 after1 1 after1 1 after1 1 after1 1 after1 1 after1 1 after1 1 after1 1 after2 2 after1 1 after1 1 after1 1 after1 1 after2 2 after1 1 after1 1 after1 1 after2 2 after1 1 after1 1 after2 2 after1 1 after1 1 after1 1 after1 1 after1 1 after2 2 after2 2 after2 2 after1 1 after1 1 after1 1 after1 1 after2 2 after1 1 after1 1 after1 1 after1 1 after1 1 after2 2 after1 1 after1 1 after2 2 after2 2 after1 1 after1 1 after1 1 after1 1 after1 1 after1 1 after1 1 after1 1 after1 1 after1 1 after1 1 after1 1 after1 1 after2 2 after1 1 after1 1 after2 2 after1 1 after2 2 after1 1 after2 2 after1 1 after2 2 after1 1 after1 1 after1 1 after1 1 after1 1 after1 1 after1 1 after2 2 after1 1 after1 1 after2 2 after1 1 after1 1 after2 2 after1 1 after1 1 after1 1 after1 1 after2 2 after1 1 after1 1 after1 1 after1 1 after1 1 after1 1 after1 1 after1 1 after1 1 after2 2 after1 1 after2 2 after2 2 after1 1 after1 1 after2 2 after1 1 after1 1 after1 1 after1 1 after1 1 after1 1 after1 1 after2 2 after1 1 after1 1 after2 2 after1 1 after1 1 after1 1 after1 1 after1 1 after1 1 after1 1 after1 1 after1 1 after1 1 after1 1 after1 1 after1 1 after1 1 after1 1 after1 1 after2 2 after2 2 after1 1 after1 1 after1 1 after1 1 after1 1 after1 1 after1 1 after1 1 after1 1 after2 2 after1 1 after1 1 after2 2 after1 1 after1 1 after1 1 after1 1 after1 1 after1 1 after1 1 after1 1 after1 1 after1 1 after1 1 after1 1 after1 1 after1 1 after1 1 after1 1 after2 2 after2 2 after2 2 after1 1 after1 1 after1 1 after2 2 after1 1 after1 1 after1 1 after1 1 after1 1 after1 1 after2 2 after1 1 after1 1 after1 1 after2 2 after1 1 after2 2 after1 1 after1 1 after1 1 after1 1 after1 1 after2 2 after1 1 after1 1 after1 1 after1 1 after1 1 after1 1 after1 1 after1 1 after1 1 after1 1 after1 1 after2 2 after1 1 after1 1 after1 1 after1 1 after1 1 after1 1 after1 1 after2 2 after1 1 after1 1 after1 1 after1 1 after1 1 after1 1 after1 1 after1 1 after1 1 after2 2 after1 1 after1 1 after1 1 after1 1 after2 2 after1 1 after1 1 after1 1 after2 2 after1 1 after1 1 after1 1 after1 1 after1 1 after1 1 after1 1 after1 1 after2 2 after1 1 after1 1 after1 1 after2 2 after2 2 after1 1 after1 1 after1 1 after1 1 after1 1 after1 1 after1 1 after1 1 after1 1 after1 1 after2 2 after1 1 after1 1 after1 1 after2 2 after1 1 after1 1 after1 1 after1 1 after1 1 after2 2 after1 1 after1 1 after1 1 after1 1 after1 1 after1 1 after2 2 after1 1 after1 1 after2 2 after1 1 after2 2 after2 2 after2 2 after2 2 after1 1 after1 1 after1 1 after1 1 after1 1 after1 1 after1 1 after1 1 after1 1 after2 2 after2 2 after1 1 after1 1 after1 1 after1 1 after1 1 after1 1 after1 1 after1 1 after1 1 after1 1 after1 1 after1 1 after1 1 after1 1 after1 1 after1 1 after1 1 after1 1 after2 2 after2 2 after2 2 after1 1 after1 1 after1 1 after1 1 after1 1 after1 1 after2 2 after1 1 after1 1 after1 1 after1 1 after1 1 after1 1 after1 1 after2 2 after1 1 after1 1 after1 1 after1 1 after1 1 after2 2 after1 1 after1 1 after2 2 after1 1 after1 1 after1 1 after1 1 after1 1 after1 1 after1 1 after2 2 after1 1 after1 1 after1 1 after1 1 after1 1 after1 1 after1 1 after1 1 after2 2 after1 1 after1 1 after1 1 after1 1 after2 2 after1 1 after2 2 after1 1 after1 1 after1 1 after1 1 after1 1 after2 2 after1 1 after1 1 after1 1 after1 1 after1 1 after1 1 after1 1 after1 1 after1 1 after2 2 after1 1 after1 1 after1 1 after1 1 after1 1 after1 1 after1 1 after1 1 after1 1 after2 2 after2 2 after1 1 after1 1 after1 1 after1 1 after1 1 after1 1 after1 1 after1 1 after1 1 after1 1 after1 1 after2 2 after1 1 after1 1 after1 1 after1 1 after1 1 after1 1 after1 1 after1 1 after1 1 after1 1 after1 1 after1 1 after1 1 after1 1 after1 1 after1 1 after2 2 after1 1 after1 1 after1 1 after1 1 after1 1 after1 1 after2 2 after1 1 after1 1 after1 1 after2 2 after1 1 after1 1 after2 2 after1 1 after1 1 after1 1 after1 1 after1 1 after1 1 after1 1 after1 1 after1 1 after1 1 after1 1 after1 1 after1 1 after2 2 after1 1 after1 1 after2 2 after1 1 after1 1 after1 1 after1 1 after1 1 after1 1 after1 1 after1 1 after1 1 after2 2 after1 1 after1 1 after1 1 after1 1 after1 1 after1 1 after1 1 after1 1 after1 1 after1 1 after1 1 after1 1 after1 1 after1 1 after1 1 after1 1 after1 1 after1 1 after1 1 after2 2 after2 2 after1 1 after2 2 after1 1 after1 1 after1 1 after2 2 after1 1 after1 1 after1 1 after1 1 after1 1 after2 2 after1 1 after1 1 after1 1 after1 1 after1 1 after1 1 after1 1 after1 1 after2 2 after1 1 after2 2 after1 1 after1 1 after2 2 after1 1 after1 1 after1 1 after1 1 after1 1 after1 1 after1 1 after2 2 after2 2 after1 1 after1 1 after2 2 after1 1 after1 1 after1 1 after1 1 after2 2 after1 1 after1 1 after1 1 after2 2 after1 1 after1 1 after1 1 after1 1 after1 1 after1 1 after1 1 after1 1 after1 1 after1 1 after1 1 after2 2 after1 1 after1 1 after1 1 after1 1 after1 1 after1 1 after2 2 after1 1 after1 1 after1 1 after2 2 after1 1 after1 1 after1 1 after1 1 after1 1 after1 1 after1 1 after2 2 after2 2 after1 1 after1 1 after1 1 after1 1 after1 1 after1 1 after1 1 after1 1 after1 1 after2 2 after1 1 after1 1 after2 2 after1 1 after1 1 after1 1 after1 1 after2 2 after1 1 after1 1 after1 1 after1 1 after1 1 after1 1 after1 1 after1 1 after1 1 after1 1 after1 1 after1 1 after2 2 after2 2 after1 1 after1 1 after2 2 after1 1 after1 1 after1 1 after1 1 after1 1 after1 1 after1 1 after2 2 after1 1 after1 1 after2 2 after1 1 after1 1 after1 1 after1 1 after1 1 after1 1 after2 2 after1 1 after1 1 after1 1 after1 1 after1 1 after1 1 after1 1 after1 1 after1 1 after2 2 after1 1 after2 2 after1 1 after1 1 after1 1 after1 1 after1 1 after1 1 after1 1 after1 1 after1 1 after1 1 after1 1 after1 1 after1 1 after1 1 after1 1 after1 1 after1 1 after1 1 after2 2 after1 1 after1 1 after1 1 after1 1 after1 1 after1 1 after1 1 after1 1 after1 1 after2 2 after2 2 after1 1 after1 1 after1 1 after1 1 after1 1 after1 1 after1 1 after1 1 after1 1 after1 1 after2 2 after1 1 after1 1 after1 1 after2 2 after1 1 after1 1 after1 1 after1 1 after1 1 after1 1 after1 1 after2 2 after1 1 after1 1 after1 1 after1 1 after1 1 after1 1 after1 1 after2 2 after2 2 after1 1 after1 1 after1 1 after1 1 after1 1 after1 1 after1 1 after1 1 after1 1 after1 1 after1 1 after1 1 after1 1 after1 1 after1 1 after1 1 after1 1 after1 1 after1 1 after1 1 after1 1 after1 1 after2 2 after1 1 after1 1 after1 1 after1 1 after2 2 after1 1 after1 1 after1 1 after1 1 after1 1 after1 1 after1 1 after1 1 after1 1 after1 1 after2 2 after2 2 after2 2 after2 2 after1 1 after1 1 after1 1 after1 1 after1 1 after1 1 after1 1 after1 1 after1 1 after1 1 after1 1 after1 1 after1 1 after1 1 after1 1 after1 1 after1 1 after1 1 after1 1 after1 1 after1 1 after1 1 after1 1 after1 1 after2 2 after1 1 after1 1 after2 2 after1 1 after2 2 after1 1 after1 1 after2 2 after1 1 after1 1 after1 1 after1 1 after1 1 after1 1 after1 1 after2 2 after1 1 after1 1 after1 1 after2 2 after1 1 after1 1 after1 1 after1 1 after1 1 after1 1 after1 1 after1 1 after1 1 after1 1 after1 1 after1 1 after2 2 after1 1 after1 1 after2 2 after1 1 after2 2 after2 2 after1 1 after1 1 after1 1 after1 1 after1 1 after1 1 after1 1 after1 1 after1 1 after2 2 after1 1 after1 1 after1 1 after1 1 after1 1 after1 1 after1 1 after1 1 after1 1 after2 2 after2 2 after1 1 after1 1 after1 1 after1 1 after1 1 after1 1 after1 1 after1 1 after1 1 after2 2 after2 2 after2 2 after1 1 after1 1 after2 2 after1 1 after1 1 after1 1 after1 1 after1 1 after1 1 after1 1 after1 1 after1 1 after2 2 after1 1 after1 1 after2 2 after1 1 after1 1 after1 1 after1 1 after1 1 after1 1 after1 1 after1 1 after1 1 after1 1 after1 1 after1 1 after1 1 after1 1 after1 1 after1 1 after1 1 after2 2 after1 1 after1 1 after1 1 after1 1 after1 1 after1 1 after1 1 after1 1 after1 1 after1 1 after2 2 after1 1 after1 1 after1 1 after1 1 after1 1 after2 2 after1 1 after1 1 after1 1 after1 1 after2 2 after1 1 after1 1 after1 1 after1 1 after2 2 after1 1 after1 1 after1 1 after2 2 after1 1 after1 1 after1 1 after1 1 after1 1 after1 1 after2 2 after1 1 after2 2 after2 2 after1 1 after1 1 after2 2 after1 1 after1 1 after1 1 after1 1 after1 1 after2 2 after1 1 after1 1 after1 1 after1 1 after2 2 after1 1 after1 1 after2 2 after1 1 after1 1 after1 1 after1 1 after2 2 after1 1 after1 1 after1 1 after1 1 after1 1 after1 1 after1 1 after1 1 after1 1 after2 2 after1 1 after2 2 after2 2 after2 2 after2 2 after1 1 after1 1 after2 2 after1 1 after1 1 after1 1 after1 1 after1 1 after1 1 after1 1 after2 2 after1 1 after1 1 after1 1 after1 1 after1 1 after1 1 after1 1 after1 1 after2 2 after1 1 after1 1 after1 1 after1 1 after1 1 after1 1 after1 1 after1 1 after1 1 after1 1 after2 2 after1 1 after1 1 after1 1 after1 1 after1 1 after1 1 after1 1 after1 1 after1 1 after1 1 after1 1 after1 1 after2 2 after1 1 after1 1 after1 1 after1 1 after1 1 after2 2 after1 1 after1 1 after1 1 after1 1 after1 1 after1 1 after1 1 after1 1 after1 1 after1 1 after2 2 after1 1 after1 1 after2 2 after1 1 after1 1 after1 1 after1 1 after1 1 after1 1 after1 1 after2 2 after1 1 after1 1 after1 1 after2 2 after1 1 after1 1 after1 1 after1 1 after1 1 after1 1 after2 2 after1 1 after1 1 after1 1 after1 1 after1 1 after1 1 after1 1 after1 1 after1 1 after1 1 after1 1 after1 1 after1 1 after1 1 after1 1 after1 1 after1 1 after1 1 after1 1 after1 1 after2 2 after1 1 after1 1 after2 2 after1 1 after1 1 after1 1 after1 1 after1 1 after2 2 after1 1 after1 1 after2 2 after1 1 after1 1 after1 1 after1 1 after1 1 after1 1 after1 1 after1 1 after1 1 after2 2 after1 1 after1 1 after1 1 after1 1 after1 1 after1 1 after1 1 after2 2 after2 2 after2 2 after1 1 after1 1 after1 1 after1 1 after1 1 after1 1 after1 1 after1 1 after1 1 after1 1 after1 1 after2 2 after1 1 after1 1 after1 1 after1 1 after1 1 after1 1 after1 1 after1 1 after1 1 after1 1 after1 1 after1 1 after1 1 after2 2 after1 1 after1 1 after1 1 after1 1 after1 1 after1 1 after1 1 after1 1 after1 1 after1 1 after1 1 after1 1 after2 2 after2 2 after1 1 after1 1 after1 1 after1 1 after1 1 after1 1 after2 2 after1 1 after2 2 after1 1 after1 1 after1 1 after1 1 after1 1 after1 1 after1 1 after1 1 after1 1 after1 1 after1 1 after2 2 after1 1 after2 2 after1 1 after1 1 after1 1 after2 2 after1 1 after1 1 after1 1 after1 1 after1 1 after2 2 after1 1 after1 1 after1 1 after2 2 after1 1 after1 1 after1 1 after1 1 after1 1 after1 1 after2 2 after1 1 after1 1 after1 1 after1 1 after1 1 after1 1 after1 1 after1 1 after2 2 after1 1 after2 2 after2 2 after2 2 after1 1 after1 1 after1 1 after1 1 after1 1 after1 1 after2 2 after1 1 after1 1 after1 1 after1 1 after1 1 after2 2 after1 1 after1 1 after2 2 after1 1 after1 1 after1 1 after1 1 after1 1 after1 1 after1 1 after2 2 after1 1 after1 1 after1 1 after1 1 after1 1 after1 1 after1 1 after2 2 after1 1 after1 1 after1 1 after1 1 after1 1 after1 1 after1 1 after1 1 after1 1 after2 2 after1 1 after1 1 after1 1 after1 1 after1 1 after1 1 after1 1 after1 1 after1 1 after2 2 after1 1 after1 1 after2 2 after1 1 after1 1 after1 1 after1 1 after1 1 after1 1 after1 1 after2 2 after1 1 after1 1 after2 2 after1 1 after1 1 after1 1 after1 1 after1 1 after1 1 after1 1 after2 2 after2 2 after2 2 after2 2 after1 1 after1 1 after1 1 after1 1 after1 1 after1 1 after1 1 after1 1 after1 1 after2 2 after1 1 after1 1 after1 1 after1 1 after1 1 after1 1 after2 2 after2 2 after1 1 after1 1 after1 1 after1 1 after1 1 after1 1 after1 1 after1 1 after1 1 after2 2 after1 1 after1 1 after1 1 after2 2 after1 1 after1 1 after1 1 after1 1 after2 2 after1 1 after1 1 after1 1 after1 1 after1 1 after2 2 after1 1 after2 2 after1 1 after1 1 after1 1 after2 2 after2 2 after1 1 after1 1 after1 1 after1 1 after1 1 after1 1 after1 1 after1 1 after1 1 after1 1 after1 1 after1 1 after1 1 after2 2 after2 2 after1 1 after2 2 after2 2 after1 1 after1 1 after1 1 after1 1 after1 1 after1 1 after1 1 after1 1 after1 1 after2 2 after1 1 after1 1 after1 1 after2 2 after1 1 after1 1 after1 1 after1 1 after1 1 after1 1 after2 2 after2 2 after1 1 after1 1 after1 1 after1 1 after1 1 after1 1 after1 1 after1 1 after1 1 after2 2 after2 2 after2 2 after1 1 after1 1 after2 2 after1 1 after1 1 after1 1 after1 1 after2 2 after1 1 after1 1 after1 1 after1 1 after1 1 after1 1 after1 1 after2 2 after1 1 after1 1 after1 1 after1 1 after1 1 after2 2 after2 2 after1 1 after1 1 after1 1 after1 1 after1 1 after1 1 after1 1 after1 1 after1 1 after2 2 after1 1 after1 1 after2 2 after1 1 after1 1 after1 1 after1 1 after1 1 after1 1 after2 2 after1 1 after2 2 after1 1 after1 1 after1 1 after1 1 after1 1 after1 1 after1 1 after1 1 after1 1 after2 2 after1 1 after1 1 after1 1 after1 1 after1 1 after1 1 after1 1 after1 1 after1 1 after1 1 after1 1 after2 2 after1 1 after1 1 after2 2 after1 1 after1 1 after1 1 after1 1 after1 1 after2 2 after2 2 after2 2 after1 1 after1 1 after2 2 after1 1 after1 1 after1 1 after1 1 after2 2 after1 1 after1 1 after1 1 after2 2 after1 1 after1 1 after2 2 after1 1 after1 1 after1 1 after1 1 after1 1 after1 1 after1 1 after2 2 after1 1 after1 1 after1 1 after1 1 after1 1 after1 1 after1 1 after1 1 after1 1 after2 2 after1 1 after1 1 after2 2 after1 1 after1 1 after1 1 after1 1 after1 1 after1 1 after1 1 after1 1 after1 1 after2 2 after1 1 after1 1 after1 1 after1 1 after1 1 after2 2 after1 1 after1 1 after1 1 after1 1 after1 1 after1 1 after1 1 after1 1 after1 1 after1 1 after2 2 after1 1 after2 2 after1 1 after1 1 after1 1 after1 1 after1 1 after1 1 after1 1 after1 1 after1 1 after2 2 after2 2 after1 1 after1 1 after1 1 after2 2 after1 1 after1 1 after1 1 after1 1 after2 2 after1 1 after2 2 after1 1 after2 2 after1 1 after1 1 after1 1 after1 1 after1 1 after1 1 after1 1 after1 1 after1 1 after2 2 after1 1 after1 1 after1 1 after1 1 after2 2 after1 1 after1 1 after1 1 after1 1 after1 1 after1 1 after1 1 after1 1 after1 1 after1 1 after1 1 after1 1 after1 1 after1 1 after1 1 after1 1 after2 2 after1 1 after1 1 after1 1 after1 1 after1 1 after1 1 after1 1 after1 1 after1 1 after1 1 after1 1 after1 1 after1 1 after1 1 after1 1 after1 1 after2 2 after2 2 after1 1 after1 1 after2 2 after1 1 after1 1 after1 1 after1 1 after1 1 after1 1 after1 1 after2 2 after1 1 after1 1 after1 1 after1 1 after1 1 after1 1 after1 1 after1 1 after1 1 after1 1 after1 1 after2 2 after1 1 after1 1 after1 1 after1 1 after1 1 after1 1 after1 1 after2 2 after2 2 after1 1 after1 1 after1 1 after1 1 after1 1 after1 1 after2 2 after2 2 after1 1 after1 1 after1 1 after2 2 after1 1 after1 1 after2 2 after1 1 after1 1 after1 1 after1 1 after1 1 after1 1 after2 2 after1 1 after1 1 after1 1 after1 1 after1 1 after1 1 after1 1 after2 2 after1 1 after1 1 after1 1 after2 2 after1 1 after1 1 after2 2 after1 1 after1 1 after1 1 after1 1 after1 1 after1 1 after1 1 after2 2 after2 2 after1 1 after1 1 after1 1 after1 1 after2 2 after1 1 after1 1 after1 1 after1 1 after1 1 after1 1 after1 1 after1 1 after1 1 after1 1 after1 1 after1 1 after1 1 after2 2 after1 1 after2 2 after1 1 after2 2 after1 1 after1 1 after1 1 after1 1 after1 1 after1 1 after1 1 after1 1 after2 2 after1 1 after1 1 after1 1 after2 2 after1 1 after1 1 after1 1 after1 1 after1 1 after1 1 after1 1 after1 1 after1 1 after1 1 after1 1 after1 1 after1 1 after1 1 after2 2 after1 1 after2 2 after2 2 after1 1 after2 2 after1 1 after1 1 after1 1 after1 1 after1 1 after1 1 after1 1 after1 1 after1 1 after1 1 after1 1 after1 1 after1 1 after1 1 after1 1 after2 2 after1 1 after1 1 after2 2 after1 1 after1 1 after1 1 after1 1 after1 1 after1 1 after1 1 after1 1 after1 1 after2 2 after1 1 after1 1 after2 2 after1 1 after1 1 after1 1 after1 1 after1 1 after1 1 after1 1 after1 1 after1 1 after2 2 after1 1 after1 1 after1 1 after1 1 after1 1 after1 1 after1 1 after2 2 after1 1 after1 1 after2 2 after1 1 after1 1 after1 1 after1 1 after1 1 after1 1 after1 1 after1 1 after1 1 after2 2 after1 1 after1 1 after2 2 after1 1 after1 1 after1 1 after1 1 after2 2 after1 1 after2 2 after2 2 after1 1 after1 1 after2 2 after1 1 after1 1 after1 1 after1 1 after1 1 after1 1 after1 1 after2 2 after1 1 after1 1 after1 1 after1 1 after1 1 after1 1 after1 1 after1 1 after1 1 after1 1 after1 1 after1 1 after1 1 after1 1 after1 1 after1 1 after1 1 after1 1 after2 2 after2 2 after1 1 after1 1 after1 1 after1 1 after1 1 after1 1 after1 1 after1 1 after1 1 after2 2 after2 2 after1 1 after1 1 after2 2 after1 1 after1 1 after2 2 after1 1 after1 1 after1 1 after1 1 after1 1 after1 1 after1 1 after1 1 after1 1 after1 1 after1 1 after2 2 after1 1 after1 1 after2 2 after1 1 after2 2 after2 2 after1 1 after2 2 after1 1 after1 1 after1 1 after1 1 after1 1 after1 1 after1 1 after1 1 after2 2 after1 1 after1 1 after2 2 after1 1 after1 1 after1 1 after1 1 after1 1 after1 1 after1 1 after1 1 after1 1 after1 1 after1 1 after1 1 after1 1 after1 1 after1 1 after1 1 after2 2 after2 2 after2 2 after1 1 after1 1 after1 1 after1 1 after2 2 after1 1 after1 1 after1 1 after1 1 after1 1 after1 1 after1 1 after2 2 after1 1 after1 1 after1 1 after1 1 after1 1 after1 1 after1 1 after2 2 after1 1 after1 1 after2 2 after1 1 after1 1 after1 1 after1 1 after1 1 after1 1 after1 1 after2 2 after1 1 after1 1 after2 2 after1 1 after1 1 after1 1 after1 1 after1 1 after1 1 after1 1 after1 1 after1 1 after2 2 after1 1 after1 1 after1 1 after1 1 after1 1 after1 1 after1 1 after2 2 after1 1 after1 1 after2 2 after1 1 after1 1 after2 2 after1 1 after1 1 after1 1 after1 1 after1 1 after1 1 after1 1 after2 2 after1 1 after1 1 after2 2 after1 1 after1 1 after1 1 after1 1 after1 1 after2 2 after1 1 after1 1 after1 1 after1 1 after2 2 after1 1 after1 1 after1 1 after1 1 after1 1 after2 2 after1 1 after1 1 after2 2 after1 1 after1 1 after1 1 after1 1 after2 2 after1 1 after1 1 after1 1 after1 1 after1 1 after1 1 after1 1 after1 1 after1 1 after1 1 after1 1 after2 2 after1 1 after2 2 after1 1 after1 1 after2 2 after1 1 after1 1 after2 2 after1 1 after1 1 after1 1 after1 1 after2 2 after1 1 after2 2 after1 1 after1 1 after2 2 after1 1 after1 1 after1 1 after1 1 after2 2 after1 1 after1 1 after1 1 after1 1 after1 1 after1 1 after1 1 after1 1 after1 1 after1 1 after1 1 after1 1 after2 2 after2 2 after1 1 after1 1 after1 1 after1 1 after2 2 after1 1 after1 1 after1 1 after1 1 after2 2 after1 1 after2 2 after1 1 after1 1 after2 2 after1 1 after1 1 after1 1 after1 1 after1 1 after1 1 after2 2 after1 1 after2 2 after1 1 after1 1 after1 1 after1 1 after1 1 after1 1 after1 1 after1 1 after1 1 after1 1 after1 1 after1 1 after1 1 after2 2 after1 1 after1 1 after1 1 after1 1 after1 1 after1 1 after1 1 after1 1 after1 1 after1 1 after1 1 after1 1 after1 1 after1 1 after2 2 after1 1 after1 1 after1 1 after1 1 after1 1 after1 1 after1 1 after1 1 after1 1 after2 2 after1 1 after1 1 after1 1 after1 1 after1 1 after1 1 after1 1 after1 1 after2 2 after1 1 after1 1 after1 1 after1 1 after1 1 after2 2 after1 1 after1 1 after1 1 after1 1 after1 1 after2 2 after2 2 after1 1 after1 1 after2 2 after1 1 after1 1 after2 2 after1 1 after1 1 after1 1 after1 1 after1 1 after1 1 after1 1 after2 2 after1 1 after1 1 after1 1 after1 1 after1 1 after1 1 after1 1 after2 2 after2 2 after1 1 after1 1 after1 1 after1 1 after1 1 after1 1 after1 1 after1 1 after2 2 after1 1 after1 1 after1 1 after2 2 after1 1 after1 1 after1 1 after1 1 after2 2 after1 1 after1 1 after1 1 after1 1 after1 1 after1 1 after1 1 after1 1 after1 1 after1 1 after1 1 after1 1 after2 2 after1 1 after1 1 after2 2 after2 2 after1 1 after1 1 after1 1 after1 1 after1 1 after1 1 after1 1 after2 2 after1 1 after1 1 after1 1 after1 1 after1 1 after1 1 after1 1 after1 1 after2 2 after1 1 after2 2 after1 1 after1 1 after1 1 after1 1 after1 1 after1 1 after2 2 after1 1 after1 1 after1 1 after2 2 after1 1 after1 1 after1 1 after1 1 after1 1 after1 1 after1 1 after1 1 after1 1 after1 1 after1 1 after2 2 after1 1 after1 1 after1 1 after1 1 after2 2 after1 1 after1 1 after2 2 after1 1 after1 1 after1 1 after1 1 after1 1 after1 1 after1 1 after1 1 after1 1 after1 1 after2 2 after2 2 after2 2 after2 2 after1 1 after1 1 after1 1 after1 1 after1 1 after1 1 after1 1 after1 1 after1 1 after2 2 after1 1 after1 1 after2 2 after1 1 after1 1 after1 1 after1 1 after1 1 after1 1 after1 1 after2 2 after1 1 after1 1 after2 2 after1 1 after1 1 after1 1 after1 1 after1 1 after1 1 after1 1 after2 2 after2 2 after1 1 after1 1 after1 1 after1 1 after1 1 after1 1 after1 1 after1 1 after1 1 after1 1 after1 1 after1 1 after1 1 after1 1 after2 2 after1 1 after1 1 after1 1 after1 1 after2 2 after1 1 after2 2 after1 1 after1 1 after1 1 after1 1 after1 1 after1 1 after2 2 after1 1 after1 1 after1 1 after1 1 after2 2 after1 1 after1 1 after2 2 after1 1 after1 1 after1 1 after1 1 after2 2 after1 1 after2 2 after2 2 after1 1 after1 1 after1 1 after1 1 after1 1 after1 1 after2 2 after1 1 after1 1 after1 1 after1 1 after1 1 after1 1 after1 1 after1 1 after1 1 after1 1 after1 1 after1 1 after1 1 after1 1 after1 1 after1 1 after1 1 after1 1 after1 1 after1 1 after1 1 after1 1 after2 2 after1 1 after1 1 after1 1 after2 2 after2 2 after1 1 after1 1 after1 1 after1 1 after1 1 after2 2 after1 1 after1 1 after1 1 after1 1 after1 1 after1 1 after1 1 after1 1 after1 1 after1 1 after1 1 after1 1 after1 1 after1 1 after1 1 after1 1 after1 1 after2 2 after1 1 after2 2 after1 1 after1 1 after1 1 after1 1 after1 1 after1 1 after1 1 after1 1 after1 1 after1 1 after1 1 after1 1 after1 1 after1 1 after1 1 after1 1 after2 2 after1 1 after1 1 after2 2 after1 1 after1 1 after1 1 after1 1 after1 1 after1 1 after1 1 after1 1 after2 2 after1 1 after2 2 after2 2 after2 2 after1 1 after2 2 after1 1 after1 1 after1 1 after2 2 after1 1 after1 1 after1 1 after1 1 after1 1 after2 2 after1 1 after1 1 after1 1 after1 1 after1 1 after1 1 after1 1 after1 1 after1 1 after2 2 after1 1 after1 1 after1 1 after1 1 after1 1 after1 1 after1 1 after1 1 after1 1 after2 2 after2 2 after2 2 after2 2 after1 1 after1 1 after2 2 after1 1 after1 1 after1 1 after1 1 after1 1 after1 1 after2 2 after1 1 after1 1 after1 1 after2 2 after1 1 after2 2 after1 1 after1 1 after1 1 after1 1 after1 1 after1 1 after2 2 after1 1 after1 1 after2 2 after1 1 after1 1 after1 1 after1 1 after1 1 after1 1 after1 1 after2 2 after1 1 after1 1 after1 1 after1 1 after1 1 after1 1 after1 1 after1 1 after1 1 after2 2 after1 1 after1 1 after2 2 after1 1 after1 1 after1 1 after1 1 after1 1 after1 1 after1 1 after1 1 after1 1 after1 1 after1 1 after1 1 after1 1 after1 1 after1 1 after1 1 after1 1 after1 1 after1 1 after1 1 after1 1 after1 1 after1 1 after1 1 after1 1 after1 1 after1 1 after1 1 after1 1 after1 1 after1 1 after1 1 after1 1 after1 1 after2 2 after1 1 after1 1 after1 1 after1 1 after2 2 after1 1 after1 1 after1 1 after1 1 after2 2 after1 1 after1 1 after1 1 after1 1 after1 1 after1 1 after1 1 after1 1 after1 1 after2 2 after1 1 after2 2 after2 2 after2 2 after1 1 after1 1 after1 1 after1 1 after1 1 after1 1 after1 1 after1 1 after1 1 after2 2 after1 1 after1 1 after1 1 after1 1 after1 1 after1 1 after1 1 after1 1 after1 1 after2 2 after1 1 after1 1 after1 1 after1 1 after1 1 after1 1 after1 1 after1 1 after2 2 after1 1 after2 2 after2 2 after2 2 after2 2 after1 1 after1 1 after1 1 after1 1 after1 1 after1 1 after2 2 after1 1 after1 1 after1 1 after1 1 after1 1 after2 2 after1 1 after1 1 after1 1 after1 1 after1 1 after1 1 after1 1 after1 1 after1 1 after1 1 after1 1 after1 1 after1 1 after1 1 after1 1 after1 1 after2 2 after2 2 after1 1 after1 1 after2 2 after1 1 after1 1 after1 1 after1 1 after1 1 after1 1 after1 1 after1 1 after1 1 after1 1 after1 1 after1 1 after1 1 after1 1 after1 1 after1 1 after1 1 after1 1 after2 2 after1 1 after1 1 after1 1 after1 1 after2 2 after1 1 after1 1 after1 1 after1 1 after1 1 after1 1 after1 1 after2 2 after1 1 after1 1 after1 1 after1 1 after1 1 after2 2 after1 1 after1 1 after1 1 after1 1 after1 1 after1 1 after1 1 after1 1 after1 1 after1 1 after1 1 after1 1 after1 1 after1 1 after1 1 after2 2 after2 2 after1 1 after1 1 after1 1 after1 1 after1 1 after1 1 after1 1 after1 1 after1 1 after1 1 after1 1 after1 1 after2 2 after1 1 after1 1 after1 1 after1 1 after2 2 after1 1 after1 1 after1 1 after1 1 after1 1 after2 2 after2 2 after2 2 after1 1 after1 1 after1 1 after1 1 after1 1 after1 1 after1 1 after1 1 after1 1 after1 1 after1 1 after1 1 after1 1 after1 1 after1 1 after2 2 after1 1 after1 1 after2 2 after2 2 after1 1 after2 2 after2 2 after1 1 after1 1 after1 1 after1 1 after1 1 after1 1 after1 1 after1 1 after1 1 after2 2 after2 2 after1 1 after1 1 after1 1 after2 2 after1 1 after1 1 after1 1 after1 1 after1 1 after1 1 after2 2 after1 1 after1 1 after1 1 after1 1 after1 1 after1 1 after1 1 after1 1 after1 1 after2 2 after2 2 after2 2 after1 1 after1 1 after2 2 after1 1 after1 1 after1 1 after1 1 after1 1 after1 1 after1 1 after1 1 after1 1 after1 1 after1 1 after2 2 after1 1 after1 1 after1 1 after1 1 after1 1 after2 2 after2 2 after1 1 after1 1 after2 2 after1 1 after1 1 after1 1 after1 1 after1 1 after1 1 after1 1 after1 1 after1 1 after1 1 after1 1 after2 2 after1 1 after1 1 after1 1 after1 1 after1 1 after2 2 after2 2 after1 1 after1 1 after2 2 after1 1 after1 1 after2 2 after1 1 after1 1 after1 1 after1 1 after1 1 after2 2 after1 1 after1 1 after2 2 after1 1 after1 1 after1 1 after1 1 after1 1 after1 1 after1 1 after1 1 after1 1 after2 2 after1 1 after1 1 after1 1 after1 1 after1 1 after1 1 after1 1 after2 2 after2 2 after2 2 after2 2 after1 1 after1 1 after1 1 after1 1 after1 1 after1 1 after1 1 after1 1 after1 1 after2 2 after1 1 after1 1 after1 1 after1 1 after2 2 after1 1 after1 1 after1 1 after1 1 after1 1 after1 1 after1 1 after1 1 after1 1 after1 1 after1 1 after2 2 after1 1 after1 1 after1 1 after2 2 after2 2 after1 1 after1 1 after2 2 after1 1 after1 1 after1 1 after1 1 after1 1 after1 1 after2 2 after1 1 after2 2 after1 1 after1 1 after2 2 after1 1 after1 1 after1 1 after1 1 after1 1 after1 1 after1 1 after1 1 after1 1 after1 1 after1 1 after1 1 after1 1 after1 1 after1 1 after1 1 after2 2 after2 2 after2 2 after2 2 after1 1 after1 1 after1 1 after1 1 after1 1 after1 1 after1 1 after1 1 after1 1 after2 2 after1 1 after1 1 after1 1 after1 1 after1 1 after1 1 after1 1 after1 1 after1 1 after1 1 after1 1 after1 1 after1 1 after1 1 after1 1 after1 1 after1 1 after2 2 after1 1 after2 2 after1 1 after1 1 after2 2 after1 1 after1 1 after1 1 after1 1 after1 1 after1 1 after1 1 after2 2 after1 1 after1 1 after2 2 after1 1 after1 1 after2 2 after1 1 after1 1 after1 1 after1 1 after1 1 after2 2 after1 1 after1 1 after1 1 after1 1 after1 1 after1 1 after1 1 after1 1 after1 1 after2 2 after2 2 after1 1 after1 1 after1 1 after1 1 after1 1 after1 1 after1 1 after1 1 after2 2 after1 1 after2 2 after1 1 after1 1 after2 2 after1 1 after1 1 after1 1 after1 1 after1 1 after1 1 after1 1 after2 2 after1 1 after1 1 after1 1 after1 1 after1 1 after1 1 after1 1 after1 1 after1 1 after1 1 after1 1 after2 2 after1 1 after1 1 after1 1 after1 1 after1 1 after1 1 after1 1 after2 2 after2 2 after2 2 after1 1 after1 1 after1 1 after1 1 after1 1 after1 1 after1 1 after1 1 after1 1 after2 2 after1 1 after1 1 after2 2 after1 1 after1 1 after1 1 after1 1 after2 2 after1 1 after1 1 after1 1 after1 1 after1 1 after1 1 after1 1 after1 1 after1 1 after1 1 after1 1 after1 1 after2 2 after1 1 after1 1 after1 1 after1 1 after1 1 after1 1 after1 1 after1 1 after2 2 after1 1 after2 2 after2 2 after1 1 after1 1 after1 1 after1 1 after1 1 after1 1 after1 1 after1 1 after1 1 after1 1 after1 1 after1 1 after1 1 after1 1 after1 1 after1 1 after1 1 after2 2 after2 2 after1 1 after2 2 after2 2 after1 1 after1 1 after1 1 after1 1 after1 1 after1 1 after1 1 after1 1 after1 1 after2 2 after1 1 after1 1 after1 1 after2 2 after1 1 after2 2 after1 1 after1 1 after1 1 after1 1 after1 1 after2 2 after1 1 after1 1 after1 1 after1 1 after1 1 after1 1 after1 1 after1 1 after1 1 after2 2 after2 2 after1 1 after1 1 after2 2 after1 1 after1 1 after1 1 after1 1 after1 1 after1 1 after1 1 after1 1 after1 1 after2 2 after1 1 after2 2 after1 1 after1 1 after1 1 after1 1 after1 1 after2 2 after1 1 after1 1 after1 1 after1 1 after1 1 after1 1 after1 1 after1 1 after1 1 after1 1 after2 2 after1 1 after1 1 after2 2 after1 1 after1 1 after1 1 after1 1 after1 1 after1 1 after1 1 after1 1 after1 1 after2 2 after1 1 after1 1 after1 1 after1 1 after1 1 after1 1 after1 1 after1 1 after1 1 after1 1 after1 1 after2 2 after2 2 after1 1 after1 1 after1 1 after2 2 after1 1 after1 1 after1 1 after1 1 after1 1 after1 1 after1 1 after1 1 after1 1 after1 1 after1 1 after2 2 after2 2 after1 1 after1 1 after1 1 after1 1 after1 1 after1 1 after1 1 after1 1 after2 2 after1 1 after1 1 after1 1 after2 2 after1 1 after1 1 after1 1 after1 1 after2 2 after1 1 after1 1 after1 1 after1 1 after1 1 after1 1 after1 1 after1 1 after1 1 after2 2 after1 1 after1 1 after1 1 after2 2 after2 2 after2 2 after1 1 after1 1 after2 2 after1 1 after1 1 after1 1 after1 1 after1 1 after1 1 after1 1 after2 2 after1 1 after2 2 after1 1 after1 1 after1 1 after1 1 after1 1 after1 1 after1 1 after1 1 after1 1 after1 1 after1 1 after1 1 after1 1 after1 1 after2 2 after1 1 after1 1 after1 1 after2 2 after2 2 after1 1 after1 1 after1 1 after1 1 after1 1 after1 1 after1 1 after1 1 after1 1 after1 1 after1 1 after1 1 after2 2 after1 1 after1 1 after1 1 after1 1 after2 2 after1 1 after1 1 after2 2 after1 1 after1 1 after1 1 after1 1 after1 1 after1 1 after1 1 after1 1 after1 1 after2 2 after2 2 after2 2 after2 2 after1 1 after1 1 after2 2 after1 1 after1 1 after2 2 after1 1 after1 1 after1 1 after1 1 after1 1 after2 2 after1 1 after1 1 after1 1 after1 1 after1 1 after1 1 after1 1 after1 1 after1 1 after1 1 after1 1 after1 1 after1 1 after1 1 after1 1 after1 1 after1 1 after1 1 after2 2 after1 1 after1 1 after2 2 after1 1 after1 1 after1 1 after1 1 after1 1 after1 1 after2 2 after1 1 after2 2 after1 1 after1 1 after2 2 after1 1 after1 1 after2 2 after1 1 after1 1 after1 1 after1 1 after1 1 after2 2 after1 1 after1 1 after1 1 after1 1 after2 2 after1 1 after1 1 after1 1 after2 2 after1 1 after1 1 after1 1 after1 1 after2 2 after1 1 after1 1 after2 2 after1 1 after1 1 after1 1 after1 1 after1 1 after2 2 after1 1 after1 1 after1 1 after1 1 after1 1 after1 1 after1 1 after1 1 after1 1 after2 2 after2 2 after1 1 after1 1 after1 1 after1 1 after1 1 after1 1 after1 1 after1 1 after1 1 after1 1 after1 1 after1 1 after1 1 after1 1 after1 1 after2 2 after1 1 after1 1 after1 1 after1 1 after1 1 after2 2 after1 1 after1 1 after1 1 after1 1 after1 1 after1 1 after1 1 after2 2 after1 1 after1 1 after1 1 after1 1 after1 1 after1 1 after1 1 after1 1 after2 2 after1 1 after1 1 after1 1 after1 1 after1 1 after1 1 after1 1 after1 1 after1 1 after2 2 after2 2 after1 1 after2 2 after1 1 after1 1 after1 1 after1 1 after1 1 after1 1 after1 1 after1 1 after1 1 after1 1 after1 1 after2 2 after1 1 after1 1 after1 1 after1 1 after1 1 after2 2 after1 1 after1 1 after1 1 after1 1 after1 1 after1 1 after1 1 after1 1 after1 1 after1 1 after1 1 after2 2 after1 1 after1 1 after2 2 after1 1 after1 1 after1 1 after1 1 after1 1 after1 1 after1 1 after2 2 after1 1 after1 1 after1 1 after1 1 after1 1 after1 1 after1 1 after1 1 after1 1 after2 2 after1 1 after1 1 after1 1 after1 1 after1 1 after1 1 after1 1 after1 1 after1 1 after2 2 after2 2 after1 1 after1 1 after2 2 after1 1 after1 1 after1 1 after1 1 after1 1 after1 1 after1 1 after2 2 after1 1 after1 1 after2 2 after1 1 after1 1 after1 1 after1 1 after1 1 after1 1 after1 1 after2 2 after1 1 after1 1 after1 1 after1 1 after1 1 after1 1 after1 1 after2 2 after1 1 after1 1 after1 1 after1 1 after1 1 after1 1 after1 1 after1 1 after1 1 after1 1 after1 1 after2 2 after2 2 after2 2 after1 1 after1 1 after2 2 after1 1 after1 1 after1 1 after1 1 after1 1 after2 2 after1 1 after1 1 after1 1 after1 1 after1 1 after1 1 after2 2 after1 1 after1 1 after1 1 after1 1 after1 1 after1 1 after1 1 after1 1 after1 1 after1 1 after1 1 after1 1 after1 1 after1 1 after2 2 after2 2 after1 1 after1 1 after2 2 after1 1 after1 1 after1 1 after1 1 after1 1 after1 1 after1 1 after2 2 after2 2 after1 1 after1 1 after1 1 after2 2 after1 1 after1 1 after1 1 after1 1 after1 1 after1 1 after1 1 after1 1 after1 1 after1 1 after1 1 after1 1 after2 2 after1 1 after1 1 after2 2 after1 1 after1 1 after1 1 after1 1 after1 1 after2 2 after1 1 after1 1 after1 1 after1 1 after1 1 after1 1 after1 1 after1 1 after1 1 after1 1 after1 1 after1 1 after1 1 after1 1 after2 2 after1 1 after1 1 after1 1 after1 1 after1 1 after1 1 after1 1 after1 1 after1 1 after2 2 after2 2 after1 1 after1 1 after1 1 after1 1 after1 1 after1 1 after1 1 after1 1 after1 1 after2 2 after1 1 after1 1 after2 2 after1 1 after1 1 after1 1 after1 1 after1 1 after1 1 after1 1 after1 1 after1 1 after2 2 after1 1 after1 1 after1 1 after1 1 after1 1 after1 1 after1 1 after2 2 after1 1 after1 1 after1 1 after1 1 after1 1 after1 1 after1 1 after1 1 after2 2 after1 1 after2 2 after1 1 after1 1 after2 2 after1 1 after1 1 after1 1 after1 1 after1 1 after1 1 after1 1 after1 1 after1 1 after2 2 after1 1 after1 1 after2 2 after1 1 after1 1 after1 1 after1 1 after1 1 after1 1 after1 1 after2 2 after1 1 after1 1 after1 1 after1 1 after1 1 after1 1 after1 1 after2 2 after2 2 after2 2 after1 1 after1 1 after1 1 after1 1 after1 1 after1 1 after1 1 after1 1 after2 2 after1 1 after1 1 after1 1 after2 2 after1 1 after2 2 after1 1 after1 1 after1 1 after2 2 after1 1 after1 1 after1 1 after1 1 after1 1 after1 1 after1 1 after1 1 after1 1 after1 1 after1 1 after1 1 after2 2 after1 1 after2 2 after1 1 after1 1 after1 1 after1 1 after1 1 after1 1 after1 1 after1 1 after2 2 after1 1 after1 1 after2 2 after1 1 after1 1 after1 1 after1 1 after1 1 after1 1 after1 1 after1 1 after1 1 after1 1 after1 1 after1 1 after1 1 after1 1 after1 1 after1 1 after2 2 after2 2 after1 1 after1 1 after1 1 after1 1 after2 2 after1 1 after1 1 after1 1 after1 1 after2 2 after1 1 after2 2 after1 1 after1 1 after1 1 after1 1 after1 1 after1 1 after1 1 after1 1 after2 2 after1 1 after2 2 after1 1 after1 1 after1 1 after1 1 after1 1 after1 1 after1 1 after1 1 after2 2 after1 1 after2 2 after1 1 after1 1 after2 2 after1 1 after1 1 after1 1 after1 1 after2 2 after1 1 after1 1 after1 1 after2 2 after1 1 after1 1 after1 1 after1 1 after1 1 after1 1 after1 1 after1 1 after1 1 after2 2 after1 1 after1 1 after1 1 after1 1 after1 1 after1 1 after1 1 after1 1 after1 1 after2 2 after2 2 after1 1 after1 1 after2 2 after1 1 after1 1 after1 1 after1 1 after1 1 after2 2 after1 1 after1 1 after2 2 after1 1 after1 1 after1 1 after1 1 after1 1 after1 1 after1 1 after1 1 after1 1 after1 1 after1 1 after2 2 after1 1 after1 1 after1 1 after1 1 after1 1 after1 1 after1 1 after1 1 after1 1 after1 1 after1 1 after1 1 after1 1 after1 1 after1 1 after1 1 after2 2 after2 2 after2 2 after1 1 after1 1 after1 1 after1 1 after1 1 after1 1 after1 1 after1 1 after1 1 after2 2 after1 1 after1 1 after1 1 after1 1 after1 1 after1 1 after1 1 after1 1 after1 1 after1 1 after1 1 after1 1 after1 1 after1 1 after1 1 after1 1 after1 1 after1 1 after2 2 after2 2 after1 1 after2 2 after1 1 after2 2 after1 1 after1 1 after1 1 after1 1 after2 2 after2 2 after1 1 after1 1 after1 1 after2 2 after1 1 after1 1 after1 1 after1 1 after1 1 after1 1 after2 2 after1 1 after1 1 after1 1 after1 1 after1 1 after1 1 after1 1 after1 1 after1 1 after1 1 after1 1 after1 1 after2 2 after1 1 after1 1 after1 1 after1 1 after2 2 after1 1 after1 1 after1 1 after1 1 after1 1 after2 2 after1 1 after1 1 after1 1 after2 2 after1 1 after1 1 after1 1 after1 1 after1 1 after1 1 after2 2 after1 1 after1 1 after1 1 after1 1 after1 1 after1 1 after1 1 after1 1 after1 1 after2 2 after2 2 after1 1 after1 1 after2 2 after1 1 after1 1 after1 1 after1 1 after1 1 after1 1 after1 1 after1 1 after2 2 after1 1 after1 1 after1 1 after2 2 after1 1 after1 1 after1 1 after1 1 after2 2 after1 1 after1 1 after1 1 after1 1 after1 1 after1 1 after1 1 after1 1 after1 1 after1 1 after2 2 after2 2 after1 1 after1 1 after2 2 after1 1 after1 1 after2 2 after1 1 after1 1 after1 1 after1 1 after1 1 after2 2 after1 1 after1 1 after1 1 after1 1 after1 1 after2 2 after1 1 after1 1 after1 1 after1 1 after2 2 after2 2 after1 1 after1 1 after2 2 after1 1 after1 1 after1 1 after1 1 after1 1 after1 1 after1 1 after1 1 after1 1 after1 1 after1 1 after1 1 after1 1 after1 1 after1 1 after1 1 after2 2 after2 2 after1 1 after1 1 after1 1 after1 1 after2 2 after1 1 after1 1 after1 1 after1 1 after1 1 after2 2 after2 2 after1 1 after1 1 after1 1 after1 1 after1 1 after1 1 after2 2 after1 1 after1 1 after1 1 after1 1 after1 1 after1 1 after1 1 after1 1 after1 1 after1 1 after1 1 after1 1 after2 2 after1 1 after1 1 after1 1 after1 1 after1 1 after1 1 after1 1 after1 1 after1 1 after2 2 after2 2 after1 1 after2 2 after1 1 after1 1 after1 1 after1 1 after1 1 after2 2 after1 1 after1 1 after2 2 after1 1 after1 1 after1 1 after1 1 after1 1 after1 1 after1 1 after2 2 after1 1 after1 1 after2 2 after2 2 after1 1 after2 2 after2 2 after1 1 after1 1 after1 1 after1 1 after1 1 after1 1 after1 1 after1 1 after1 1 after2 2 after2 2 after1 1 after1 1 after1 1 after2 2 after1 1 after1 1 after1 1 after1 1 after1 1 after1 1 after2 2 after2 2 after1 1 after1 1 after1 1 after1 1 after1 1 after1 1 after1 1 after1 1 after2 2 after1 1 after2 2 after2 2 after1 1 after2 2 after1 1 after1 1 after1 1 after2 2 after1 1 after1 1 after1 1 after1 1 after1 1 after1 1 after1 1 after1 1 after1 1 after1 1 after1 1 after2 2 after1 1 after1 1 after1 1 after2 2 after1 1 after1 1 after1 1 after1 1 after1 1 after1 1 after1 1 after1 1 after1 1 after2 2 after2 2 after1 1 after1 1 after2 2 after1 1 after1 1 after1 1 after1 1 after1 1 after1 1 after1 1 after2 2 after1 1 after1 1 after2 2 after1 1 after1 1 after2 2 after1 1 after1 1 after1 1 after1 1 after1 1 after2 2 after1 1 after1 1 after2 2 after1 1 after1 1 after1 1 after1 1 after1 1 after1 1 after1 1 after1 1 after1 1 after2 2 after1 1 after1 1 after2 2 after1 1 after1 1 after1 1 after1 1 after1 1 after2 2 after1 1 after1 1 after1 1 after1 1 after1 1 after1 1 after1 1 after1 1 after1 1 after2 2 after1 1 after1 1 after1 1 after1 1 after1 1 after1 1 after2 2 after1 1 after1 1 after1 1 after1 1 after1 1 after1 1 after1 1 after1 1 after1 1 after1 1 after1 1 after2 2 after1 1 after2 2 after1 1 after1 1 after1 1 after1 1 after2 2 after1 1 after1 1 after1 1 after1 1 after1 1 after2 2 after1 1 after1 1 after2 2 after1 1 after1 1 after1 1 after1 1 after2 2 after1 1 after1 1 after1 1 after1 1 after1 1 after1 1 after1 1 after1 1 after1 1 after1 1 after1 1 after1 1 after1 1 after1 1 after1 1 after1 1 after2 2 after1 1 after1 1 after1 1 after1 1 after2 2 after1 1 after1 1 after1 1 after2 2 after2 2 after1 1 after1 1 after1 1 after1 1 after1 1 after1 1 after1 1 after2 2 after1 1 after1 1 after1 1 after1 1 after1 1 after1 1 after1 1 after1 1 after1 1 after2 2 after2 2 after2 2 after1 1 after1 1 after2 2 after1 1 after1 1 after1 1 after1 1 after1 1 after1 1 after1 1 after1 1 after1 1 after1 1 after1 1 after1 1 after1 1 after1 1 after1 1 after1 1 after2 2 after1 1 after1 1 after2 2 after1 1 after1 1 after1 1 after1 1 after1 1 after1 1 after1 1 after2 2 after1 1 after1 1 after1 1 after1 1 after1 1 after1 1 after2 2 after1 1 after1 1 after1 1 after2 2 after1 1 after1 1 after2 2 after1 1 after1 1 after1 1 after1 1 after1 1 after1 1 after1 1 after1 1 after1 1 after2 2 after1 1 after1 1 after2 2 after1 1 after1 1 after1 1 after2 2 after1 1 after1 1 after1 1 after1 1 after2 2 after1 1 after1 1 after1 1 after1 1 after1 1 after1 1 after2 2 after1 1 after2 2 after2 2 after2 2 after1 1 after1 1 after1 1 after1 1 after1 1 after1 1 after1 1 after1 1 after1 1 after2 2 after1 1 after1 1 after2 2 after1 1 after1 1 after1 1 after1 1 after2 2 after1 1 after1 1 after1 1 after1 1 after1 1 after1 1 after1 1 after1 1 after1 1 after1 1 after1 1 after1 1 after2 2 after1 1 after1 1 after2 2 after1 1 after1 1 after2 2 after1 1 after1 1 after1 1 after1 1 after1 1 after2 2 after1 1 after1 1 after1 1 after1 1 after1 1 after1 1 after2 2 after1 1 after1 1 after1 1 after1 1 after1 1 after1 1 after1 1 after1 1 after1 1 after2 2 after1 1 after1 1 after2 2 after1 1 after2 2 after2 2 after1 1 after1 1 after1 1 after1 1 after2 2 after1 1 after1 1 after1 1 after1 1 after1 1 after2 2 after2 2 after1 1 after1 1 after1 1 after1 1 after1 1 after1 1 after1 1 after1 1 after1 1 after2 2 after1 1 after1 1 after1 1 after1 1 after1 1 after1 1 after1 1 after1 1 after2 2 after1 1 after1 1 after1 1 after1 1 after1 1 after1 1 after1 1 after1 1 after1 1 after1 1 after1 1 after1 1 after1 1 after1 1 after1 1 after1 1 after1 1 after1 1 after1 1 after2 2 after2 2 after1 1 after1 1 after1 1 after1 1 after1 1 after1 1 after1 1 after1 1 after1 1 after1 1 after1 1 after1 1 after1 1 after1 1 after1 1 after1 1 after1 1 after1 1 after1 1 after1 1 after2 2 after1 1 after1 1 after1 1 after1 1 after1 1 after1 1 after1 1 after2 2 after1 1 after1 1 after1 1 after1 1 after2 2 after1 1 after1 1 after1 1 after1 1 after1 1 after1 1 after1 1 after1 1 after1 1 after1 1 after1 1 after1 1 after1 1 after1 1 after2 2 after2 2 after2 2 after2 2 after1 1 after1 1 after1 1 after1 1 after1 1 after1 1 after1 1 after1 1 after1 1 after2 2 after1 1 after1 1 after2 2 after1 1 after1 1 after1 1 after1 1 after2 2 after1 1 after1 1 after1 1 after1 1 after1 1 after1 1 after1 1 after1 1 after1 1 after1 1 after1 1 after1 1 after2 2 after2 2 after1 1 after2 2 after1 1 after1 1 after1 1 after1 1 after1 1 after1 1 after1 1 after1 1 after2 2 after1 1 after1 1 after1 1 after1 1 after1 1 after1 1 after1 1 after1 1 after1 1 after1 1 after1 1 after1 1 after1 1 after1 1 after1 1 after1 1 after1 1 after2 2 after2 2 after1 1 after2 2 after1 1 after1 1 after1 1 after1 1 after2 2 after1 1 after1 1 after1 1 after1 1 after1 1 after1 1 after1 1 after2 2 after1 1 after1 1 after1 1 after1 1 after1 1 after2 2 after1 1 after1 1 after1 1 after1 1 after1 1 after1 1 after1 1 after1 1 after1 1 after1 1 after1 1 after2 2 after2 2 after2 2 after2 2 after2 2 after2 2 after1 1 after1 1 after1 1 after1 1 after2 2 after1 1 after2 2 after1 1 after1 1 after1 1 after1 1 after2 2 after1 1 after1 1 after1 1 after2 2 after1 1 after1 1 after1 1 after1 1 after1 1 after1 1 after2 2 after1 1 after1 1 after1 1 after1 1 after1 1 after1 1 after1 1 after1 1 after1 1 after2 2 after2 2 after1 1 after1 1 after2 2 after1 1 after1 1 after1 1 after1 1 after1 1 after1 1 after1 1 after1 1 after1 1 after2 2 after1 1 after1 1 after2 2 after1 1 after1 1 after1 1 after1 1 after1 1 after2 2 after1 1 after1 1 after1 1 after1 1 after2 2 after1 1 after1 1 after1 1 after1 1 after1 1 after1 1 after1 1 after2 2 after1 1 after1 1 after1 1 after1 1 after1 1 after1 1 after1 1 after2 2 after2 2 after2 2 after1 1 after1 1 after1 1 after1 1 after1 1 after1 1 after1 1 after1 1 after1 1 after1 1 after1 1 after2 2 after1 1 after1 1 after1 1 after1 1 after1 1 after1 1 after1 1 after1 1 after1 1 after1 1 after1 1 after1 1 after1 1 after1 1 after1 1 after1 1 after2 2 after2 2 after1 1 after1 1 after1 1 after2 2 after1 1 after1 1 after1 1 after1 1 after1 1 after1 1 after2 2 after2 2 after1 1 after1 1 after2 2 after1 1 after1 1 after1 1 after1 1 after1 1 after1 1 after1 1 after1 1 after1 1 after1 1 after1 1 after1 1 after1 1 after2 2 after1 1 after1 1 after1 1 after2 2 after2 2 after1 1 after1 1 after1 1 after1 1 after2 2 after1 1 after1 1 after1 1 after1 1 after2 2 after1 1 after1 1 after1 1 after1 1 after1 1 after1 1 after1 1 after1 1 after1 1 after1 1 after1 1 after1 1 after1 1 after1 1 after1 1 after1 1 after1 1 after1 1 after1 1 after1 1 after1 1 after2 2 after2 2 after1 1 after1 1 after1 1 after1 1 after1 1 after1 1 after1 1 after1 1 after2 2 after1 1 after1 1 after1 1 after2 2 after1 1 after1 1 after1 1 after1 1 after1 1 after1 1 after1 1 after1 1 after1 1 after1 1 after1 1 after1 1 after1 1 after1 1 after2 2 after2 2 after1 1 after1 1 after1 1 after1 1 after1 1 after1 1 after1 1 after1 1 after1 1 after2 2 after1 1 after1 1 after2 2 after1 1 after1 1 after2 2 after1 1 after1 1 after1 1 after1 1 after1 1 after2 2 after1 1 after1 1 after1 1 after1 1 after2 2 after1 1 after1 1 after1 1 after1 1 after1 1 after1 1 after1 1 after1 1 after1 1 after2 2 after1 1 after1 1 after1 1 after1 1 after1 1 after2 2 after2 2 after1 1 after1 1 after1 1 after1 1 after1 1 after1 1 after1 1 after1 1 after1 1 after1 1 after1 1 after2 2 after1 1 after1 1 after1 1 after1 1 after2 2 after1 1 after1 1 after1 1 after1 1 after1 1 after1 1 after1 1 after1 1 after1 1 after2 2 after1 1 after1 1 after1 1 after2 2 after2 2 after1 1 after1 1 after1 1 after1 1 after2 2 after1 1 after1 1 after1 1 after1 1 after2 2 after1 1 after2 2 after1 1 after1 1 after2 2 after1 1 after1 1 after1 1 after1 1 after2 2 after1 1 after1 1 after1 1 after1 1 after1 1 after1 1 after1 1 after1 1 after1 1 after1 1 after1 1 after1 1 after2 2 after2 2 after1 1 after1 1 after1 1 after1 1 after1 1 after1 1 after1 1 after1 1 after2 2 after1 1 after2 2 after1 1 after1 1 after1 1 after1 1 after1 1 after1 1 after1 1 after1 1 after1 1 after2 2 after1 1 after1 1 after1 1 after1 1 after1 1 after1 1 after1 1 after1 1 after1 1 after2 2 after2 2 after1 1 after1 1 after1 1 after1 1 after1 1 after1 1 after1 1 after1 1 after1 1 after2 2 after1 1 after1 1 after1 1 after1 1 after1 1 after1 1 after1 1 after1 1 after2 2 after1 1 after2 2 after1 1 after1 1 after2 2 after1 1 after1 1 after1 1 after1 1 after1 1 after1 1 after1 1 after2 2 after2 2 after2 2 after1 1 after1 1 after1 1 after1 1 after2 2 after1 1 after1 1 after1 1 after1 1 after1 1 after2 2 after1 1 after1 1 after1 1 after1 1 after2 2 after1 1 after1 1 after1 1 after1 1 after1 1 after2 2 after1 1 after1 1 after2 2 after1 1 after1 1 after2 2 after1 1 after1 1 after1 1 after1 1 after1 1 after1 1 after1 1 after1 1 after1 1 after2 2 after1 1 after1 1 after1 1 after1 1 after1 1 after1 1 after1 1 after2 2 after1 1 after1 1 after1 1 after1 1 after1 1 after1 1 after2 2 after1 1 after1 1 after1 1 after1 1 after1 1 after1 1 after1 1 after1 1 after1 1 after1 1 after2 2 after1 1 after1 1 after1 1 after1 1 after1 1 after1 1 after2 2 after1 1 after1 1 after2 2 after1 1 after2 2 after2 2 after1 1 after2 2 after1 1 after2 2 after1 1 after1 1 after1 1 after1 1 after2 2 after2 2 after1 1 after1 1 after1 1 after1 1 after1 1 after2 2 after1 1 after1 1 after1 1 after1 1 after1 1 after1 1 after1 1 after2 2 after2 2 after1 1 after1 1 after1 1 after1 1 after1 1 after1 1 after1 1 after1 1 after2 2 after1 1 after2 2 after1 1 after1 1 after1 1 after1 1 after1 1 after1 1 after1 1 after1 1 after1 1 after2 2 after1 1 after1 1 after1 1 after1 1 after1 1 after1 1 after1 1 after2 2 after1 1 after1 1 after2 2 after1 1 after1 1 after1 1 after1 1 after1 1 after1 1 after1 1 after1 1 after2 2 after1 1 after2 2 after2 2 after2 2 after2 2 after1 1 after1 1 after1 1 after1 1 after2 2 after1 1 after1 1 after1 1 after1 1 after2 2 after1 1 after1 1 after1 1 after2 2 after1 1 after1 1 after1 1 after1 1 after1 1 after1 1 after1 1 after2 2 after1 1 after1 1 after1 1 after1 1 after1 1 after1 1 after1 1 after1 1 after1 1 after1 1 after1 1 after1 1 after1 1 after1 1 after1 1 after1 1 after1 1 after2 2 after1 1 after1 1 after1 1 after1 1 after1 1 after1 1 after1 1 after1 1 after1 1 after1 1 after2 2 after2 2 after1 1 after1 1 after1 1 after1 1 after2 2 after1 1 after1 1 after1 1 after1 1 after1 1 after1 1 after1 1 after1 1 after1 1 after2 2 after1 1 after1 1 after1 1 after1 1 after1 1 after2 2 after1 1 after1 1 after1 1 after1 1 after1 1 after1 1 after1 1 after1 1 after2 2 after1 1 after1 1 after1 1 after1 1 after1 1 after1 1 after1 1 after1 1 after1 1 after1 1 after1 1 after1 1 after1 1 after1 1 after1 1 after1 1 after2 2 after1 1 after1 1 after1 1 after1 1 after2 2 after1 1 after1 1 after1 1 after2 2 after1 1 after1 1 after1 1 after1 1 after1 1 after1 1 after1 1 after1 1 after2 2 after1 1 after1 1 after1 1 after2 2 after1 1 after1 1 after1 1 after1 1 after1 1 after1 1 after1 1 after1 1 after1 1 after2 2 after1 1 after1 1 after2 2 after1 1 after2 2 after1 1 after1 1 after1 1 after1 1 after1 1 after1 1 after1 1 after1 1 after1 1 after1 1 after1 1 after2 2 after1 1 after1 1 after1 1 after1 1 after1 1 after1 1 after1 1 after2 2 after1 1 after1 1 after1 1 after1 1 after1 1 after1 1 after1 1 after1 1 after1 1 after2 2 after1 1 after1 1 after2 2 after1 1 after1 1 after2 2 after1 1 after1 1 after1 1 after1 1 after1 1 after2 2 after1 1 after1 1 after2 2 after2 2 after1 1 after1 1 after1 1 after1 1 after1 1 after1 1 after1 1 after2 2 after1 1 after1 1 after1 1 after1 1 after1 1 after1 1 after1 1 after1 1 after1 1 after2 2 after1 1 after1 1
[...]
r1 1 after4 4 after4 4 after1 1 after1 1 after2 2 after4 4 after4 4 after2 2 after2 2 after2 2 after1 1 after4 4 after1 1 after2 2 after4 4 after4 4 after1 1 after4 4 after1 1 after2 2 after1 1 after4 4 after1 1 after4 4 after2 2 after4 4 after4 4 after4 4 after1 1 after1 1 after4 4 after4 4 after1 1 after1 1 after2 2 after2 2 after2 2 after1 1 after2 2 after1 1 after2 2 after1 1 after1 1 after2 2 after2 2 after4 4 after4 4 after4 4 after1 1 after2 2 after1 1 after4 4 after1 1 after2 2 after1 1 after2 2 after4 4 after4 4 after4 4 after1 1 after1 1 after1 1 after1 1 after4 4 after2 2 after4 4 after1 1 after1 1 after4 4 after4 4 after4 4 after2 2 after1 1 after1 1 after4 4 after2 2 after1 1 after2 2 after1 1 after2 2 after4 4 after4 4 after4 4 after1 1 after1 1 after2 2 after2 2 after1 1 after1 1 after4 4 after4 4 after2 2 after2 2 after1 1 after1 1 after4 4 after4 4 after4 4 after1 1 after1 1 after1 1 after4 4 after1 1 after2 2 after2 2 after2 2 after2 2 after2 2 after2 2 after1 1 after1 1 after4 4 after4 4 after2 2 after2 2 after4 4 after1 1 after2 2 after1 1 after2 2 after1 1 after1 1 after2 2 after4 4 after4 4 after4 4 after4 4 after1 1 after1 1 after1 1 after1 1 after4 4 after2 2 after4 4 after2 2 after2 2 after4 4 after1 1 after2 2 after1 1 after1 1 after4 4 after1 1 after4 4 after1 1 after4 4 after1 1 after2 2 after2 2 after2 2 after2 2 after1 1 after4 4 after4 4 after1 1 after2 2 after2 2 after2 2 after1 1 after1 1 after4 4 after2 2 after2 2 after4 4 after4 4 after2 2 after1 1 after1 1 after2 2 after2 2 after1 1 after4 4 after4 4 after1 1 after2 2 after2 2 after2 2 after4 4 after4 4 after1 1 after1 1 after2 2 after4 4 after2 2 after4 4 after2 2 after2 2 after2 2 after1 1 after1 1 after4 4 after1 1 after1 1 after2 2 after2 2 after2 2 after4 4 after1 1 after1 1 after1 1 after1 1 after2 2 after4 4 after4 4 after2 2 after1 1 after1 1 after4 4 after2 2 after2 2 after2 2 after2 2 after1 1 after1 1 after2 2 after4 4 after4 4 after2 2 after4 4 after4 4 after2 2 after1 1 after1 1 after4 4 after1 1 after4 4 after4 4 after2 2 after1 1 after2 2 after4 4 after2 2 after1 1 after1 1 after2 2 after1 1 after1 1 after4 4 after2 2 after2 2 after2 2 after4 4 after4 4 after4 4 after4 4 after1 1 after1 1 after2 2 after2 2 after2 2 after2 2 after1 1 after1 1 after2 2 after2 2 after1 1 after4 4 after1 1 after2 2 after4 4 after4 4 after4 4 after4 4 after2 2 after2 2 after2 2 after4 4 after1 1 after2 2 after1 1 after4 4 after4 4 after1 1 after1 1 after2 2 after2 2 after1 1 after1 1 after4 4 after4 4 after2 2 after2 2 after2 2 after1 1 after1 1 after2 2 after1 1 after1 1 after2 2 after2 2 after4 4 after1 1 after1 1 after2 2 after4 4 after1 1 after2 2 after4 4 after4 4 after1 1 after2 2 after4 4 after1 1 after1 1 after4 4 after2 2 after2 2 after1 1 after1 1 after2 2 after2 2 after1 1 after1 1 after2 2 after2 2 after4 4 after4 4 after2 2 after4 4 after1 1 after1 1 after4 4 after4 4 after1 1 after1 1 after2 2 after4 4 after2 2 after2 2 after1 1 after1 1 after2 2 after1 1 after4 4 after1 1 after2 2 after2 2 after2 2 after4 4 after4 4 after4 4 after1 1 after1 1 after4 4 after2 2 after1 1 after1 1 after2 2 after4 4 after2 2 after2 2 after4 4 after2 2 after1 1 after1 1 after2 2 after4 4 after2 2 after2 2 after4 4 after4 4 after4 4 after2 2 after2 2 after1 1 after4 4 after1 1 after2 2 after1 1 after1 1 after4 4 after2 2 after2 2 after2 2 after1 1 after1 1 after4 4 after2 2 after2 2 after2 2 after1 1 after1 1 after4 4 after4 4 after4 4 after2 2 after4 4 after2 2 after1 1 after1 1 after2 2 after1 1 after1 1 after2 2 after2 2 after2 2 after1 1 after1 1 after2 2 after4 4 after4 4 after4 4 after2 2 after1 1 after4 4 after1 1 after2 2 after4 4 after1 1 after2 2 after4 4 after1 1 after2 2 after1 1 after2 2 after1 1 after1 1 after1 1 after2 2 after4 4 after4 4 after1 1 after1 1 after2 2 after2 2 after2 2 after2 2 after2 2 after4 4 after4 4 after1 1 after1 1 after4 4 after2 2 after2 2 after1 1 after2 2 after4 4 after1 1 after2 2 after2 2 after1 1 after1 1 after4 4 after2 2 after2 2 after1 1 after4 4 after4 4 after1 1 after2 2 after1 1 after4 4 after1 1 after4 4 after2 2 after2 2 after4 4 after4 4 after1 1 after1 1 after4 4 after2 2 after1 1 after1 1 after2 2 after2 2 after4 4 after1 1 after1 1 after2 2 after2 2 after2 2 after2 2 after1 1 after1 1 after2 2 after1 1 after1 1 after4 4 after4 4 after4 4 after4 4 after4 4 after2 2 after4 4 after1 1 after1 1 after2 2 after4 4 after1 1 after1 1 after4 4 after2 2 after1 1 after1 1 after2 2 after2 2 after2 2 after4 4 after4 4 after2 2 after1 1 after1 1 after4 4 after4 4 after2 2 after2 2 after1 1 after4 4 after1 1 after2 2 after1 1 after2 2 after1 1 after1 1 after2 2 after1 1 after2 2 after4 4 after2 2 after2 2 after4 4 after1 1 after1 1 after4 4 after4 4 after2 2 after2 2 after2 2 after2 2 after4 4 after1 1 after1 1 after4 4 after1 1 after4 4 after1 1 after2 2 after2 2 after1 1 after1 1 after2 2 after2 2 after2 2 after1 1 after1 1 after2 2 after2 2 after4 4 after2 2 after2 2 after1 1 after2 2 after1 1 after1 1 after1 1 after2 2 after2 2 after2 2 after4 4 after2 2 after4 4 after1 1 after2 2 after4 4 after1 1 after2 2 after1 1 after1 1 after4 4 after1 1 after1 1 after2 2 after2 2 after4 4 after4 4 after2 2 after2 2 after2 2 after4 4 after1 1 after1 1 after2 2 after2 2 after1 1 after1 1 after2 2 after4 4 after2 2 after1 1 after4 4 after1 1 after2 2 after4 4 after4 4 after4 4 after2 2 after4 4 after2 2 after2 2 after1 1 after1 1 after4 4 after1 1 after1 1 after2 2 after2 2 after1 1 after1 1 after2 2 after4 4 after1 1 after1 1 after1 1 after1 1 after2 2 after2 2 after1 1 after4 4 after1 1 after4 4 after2 2 after2 2 after2 2 after1 1 after4 4 after1 1 after4 4 after1 1 after1 1 after2 2 after2 2 after4 4 after2 2 after2 2 after4 4 after2 2 after2 2 after1 1 after1 1 after1 1 after1 1 after2 2 after1 1 after4 4 after1 1 after4 4 after4 4 after2 2 after2 2 after1 1 after1 1 after2 2 after1 1 after4 4 after1 1 after4 4 after4 4 after4 4 after2 2 after4 4 after1 1 after4 4 after1 1 after2 2 after2 2 after4 4 after1 1 after1 1 after2 2 after2 2 after4 4 after1 1 after1 1 after4 4 after4 4 after1 1 after4 4 after1 1 after4 4 after4 4 after4 4 after2 2 after1 1 after1 1 after2 2 after4 4 after2 2 after2 2 after1 1 after1 1 after4 4 after4 4 after2 2 after2 2 after2 2 after2 2 after2 2 after4 4 after4 4 after4 4 after4 4 after4 4 after1 1 after1 1 after4 4 after2 2 after2 2 after1 1 after1 1 after2 2 after1 1 after4 4 after1 1 after2 2 after2 2 after1 1 after4 4 after1 1 after2 2 after4 4 after1 1 after1 1 after2 2 after1 1 after2 2 after1 1 after2 2 after4 4 after4 4 after4 4 after2 2 after2 2 after1 1 after1 1 after2 2 after4 4 after2 2 after1 1 after1 1 after1 1 after1 1 after2 2 after4 4 after2 2 after2 2 after2 2 after1 1 after2 2 after1 1 after4 4 after4 4 after4 4 after1 1 after2 2 after1 1 after1 1 after2 2 after4 4 after1 1 after2 2 after2 2 after2 2 after1 1 after1 1 after4 4 after2 2 after2 2 after2 2 after4 4 after4 4 after4 4 after1 1 after4 4 after1 1 after2 2 after4 4 after1 1 after1 1 after4 4 after2 2 after2 2 after2 2 after2 2 after4 4 after1 1 after1 1 after4 4 after2 2 after2 2 after2 2 after1 1 after2 2 after1 1 after4 4 after1 1 after2 2 after1 1 after2 2 after1 1 after2 2 after1 1 after2 2 after2 2 after4 4 after1 1 after1 1 after2 2 after4 4 after2 2 after2 2 after1 1 after1 1 after2 2 after1 1 after1 1 after2 2 after1 1 after1 1 after2 2 after4 4 after2 2 after2 2 after4 4 after1 1 after1 1 after2 2 after2 2 after1 1 after4 4 after4 4 after4 4 after1 1 after1 1 after1 1 after2 2 after2 2 after1 1 after1 1 after4 4 after4 4 after2 2 after1 1 after2 2 after1 1 after4 4 after4 4 after1 1 after1 1 after2 2 after2 2 after4 4 after4 4 after1 1 after1 1 after2 2 after2 2 after1 1 after1 1 after2 2 after2 2 after2 2 after4 4 after4 4 after1 1 after1 1 after4 4 after2 2 after4 4 after1 1 after1 1 after2 2 after4 4 after4 4 after1 1 after4 4 after2 2 after4 4 after2 2 after1 1 after2 2 after2 2 after2 2 after1 1 after1 1 after2 2 after2 2 after4 4 after1 1 after2 2 after1 1 after4 4 after4 4 after4 4 after2 2 after2 2 after1 1 after4 4 after1 1 after4 4 after2 2 after4 4 after2 2 after1 1 after2 2 after1 1 after2 2 after2 2 after1 1 after1 1 after2 2 after1 1 after2 2 after2 2 after1 1 after4 4 after4 4 after2 2 after2 2 after2 2 after4 4 after4 4 after1 1 after1 1 after1 1 after1 1 after1 1 after2 2 after1 1 after4 4 after2 2 after4 4 after2 2 after2 2 after1 1 after1 1 after2 2 after2 2 after1 1 after1 1 after4 4 after2 2 after2 2 after2 2 after4 4 after1 1 after2 2 after1 1 after4 4 after2 2 after1 1 after1 1 after4 4 after2 2 after4 4 after1 1 after4 4 after1 1 after4 4 after4 4 after2 2 after2 2 after2 2 after1 1 after4 4 after1 1 after2 2 after1 1 after1 1 after2 2 after2 2 after4 4 after4 4 after1 1 after1 1 after2 2 after4 4 after4 4 after1 1 after1 1 after4 4 after4 4 after4 4 after2 2 after4 4 after1 1 after1 1 after4 4 after1 1 after1 1 after4 4 after4 4 after2 2 after4 4 after2 2 after1 1 after1 1 after2 2 after2 2 after1 1 after4 4 after1 1 after2 2 after4 4 after4 4 after2 2 after4 4 after4 4 after1 1 after1 1 after1 1 after1 1 after4 4 after2 2 after1 1 after1 1 after2 2 after2 2 after2 2 after1 1 after2 2 after1 1 after2 2 after4 4 after1 1 after1 1 after2 2 after2 2 after2 2 after2 2 after4 4 after1 1 after4 4 after1 1 after2 2 after4 4 after2 2 after4 4 after4 4 after1 1 after4 4 after1 1 after4 4 after2 2 after2 2 after1 1 after1 1 after4 4 after2 2 after1 1 after1 1 after4 4 after2 2 after2 2 after4 4 after2 2 after1 1 after4 4 after1 1 after2 2 after1 1 after1 1 after2 2 after4 4 after2 2 after2 2 after1 1 after1 1 after2 2 after1 1 after1 1 after4 4 after2 2 after2 2 after2 2 after4 4 after1 1 after1 1 after2 2 after2 2 after2 2 after4 4 after1 1 after1 1 after4 4 after1 1 after1 1 after2 2 after4 4 after1 1 after1 1 after2 2 after4 4 after2 2 after4 4 after4 4 after2 2 after1 1 after4 4 after1 1 after2 2 after4 4 after1 1 after1 1 after2 2 after4 4 after4 4 after2 2 after1 1 after2 2 after1 1 after2 2 after1 1 after1 1 after4 4 after2 2 after2 2 after2 2 after1 1 after4 4 after1 1 after4 4 after2 2 after2 2 after4 4 after1 1 after1 1 after2 2 after4 4 after1 1 after4 4 after1 1 after4 4 after1 1 after1 1 after4 4 after2 2 after4 4 after2 2 after2 2 after4 4 after2 2 after4 4 after2 2 after4 4 after4 4 after1 1 after1 1 after4 4 after2 2 after4 4 after4 4 after2 2 after1 1 after1 1 after4 4 after1 1 after2 2 after1 1 after2 2 after2 2 after4 4 after2 2 after1 1 after1 1 after2 2 after4 4 after4 4 after1 1 after4 4 after2 2 after1 1 after2 2 after2 2 after4 4 after4 4 after1 1 after1 1 after2 2 after1 1 after1 1 after2 2 after4 4 after2 2 after1 1 after1 1 after2 2 after2 2 after2 2 after1 1 after1 1 after4 4 after4 4 after2 2 after2 2 after4 4 after4 4 after4 4 after1 1 after1 1 after2 2 after2 2 after1 1 after4 4 after1 1 after4 4 after4 4 after1 1 after1 1 after2 2 after4 4 after1 1 after1 1 after4 4 after2 2 after2 2 after4 4 after4 4 after1 1 after4 4 after2 2 after1 1 after4 4 after4 4 after1 1 after1 1 after2 2 after2 2 after1 1 after1 1 after2 2 after4 4 after1 1 after4 4 after1 1 after2 2 after4 4 after4 4 after4 4 after2 2 after2 2 after4 4 after1 1 after1 1 after4 4 after2 2 after2 2 after1 1 after1 1 after2 2 after2 2 after1 1 after1 1 after2 2 after2 2 after2 2 after2 2 after1 1 after4 4 after1 1 after4 4 after2 2 after2 2 after2 2 after1 1 after4 4 after1 1 after2 2 after4 4 after2 2 after1 1 after1 1 after2 2 after4 4 after1 1 after2 2 after1 1 after2 2 after4 4 after4 4 after4 4 after1 1 after1 1 after2 2 after2 2 after2 2 after4 4 after2 2 after2 2 after1 1 after1 1 after4 4 after4 4 after2 2 after1 1 after1 1 after4 4 after4 4 after1 1 after1 1 after2 2 after1 1 after1 1 after4 4 after2 2 after2 2 after2 2 after1 1 after1 1 after4 4 after2 2 after2 2 after2 2 after2 2 after4 4 after1 1 after1 1 after1 1 after1 1 after2 2 after4 4 after4 4 after2 2 after4 4 after4 4 after2 2 after4 4 after1 1 after4 4 after1 1 after1 1 after1 1 after2 2 after4 4 after4 4 after4 4 after2 2 after2 2 after2 2 after4 4 after1 1 after1 1 after2 2 after2 2 after4 4 after1 1 after4 4 after1 1 after4 4 after1 1 after1 1 after2 2 after4 4 after2 2 after2 2 after1 1 after2 2 after1 1 after2 2 after4 4 after4 4 after4 4 after1 1 after4 4 after1 1 after2 2 after2 2 after1 1 after1 1 after2 2 after1 1 after4 4 after4 4 after1 1 after2 2 after2 2 after2 2 after2 2 after4 4 after2 2 after2 2 after1 1 after4 4 after1 1 after2 2 after2 2 after2 2 after1 1 after2 2 after1 1 after2 2 after2 2 after2 2 after1 1 after2 2 after1 1 after2 2 after4 4 after4 4 after1 1 after1 1 after1 1 after1 1 after4 4 after2 2 after4 4 after2 2 after2 2 after1 1 after1 1 after2 2 after4 4 after4 4 after4 4 after1 1 after1 1 after1 1 after4 4 after1 1 after4 4 after1 1 after2 2 after1 1 after2 2 after4 4 after2 2 after2 2 after4 4 after2 2 after2 2 after1 1 after1 1 after2 2 after4 4 after2 2 after4 4 after2 2 after1 1 after1 1 after2 2 after2 2 after2 2 after4 4 after1 1 after2 2 after1 1 after2 2 after2 2 after1 1 after4 4 after1 1 after4 4 after4 4 after2 2 after2 2 after4 4 after4 4 after2 2 after1 1 after2 2 after1 1 after4 4 after1 1 after1 1 after2 2 after4 4 after2 2 after1 1 after4 4 after1 1 after4 4 after2 2 after4 4 after1 1 after1 1 after2 2 after4 4 after2 2 after1 1 after1 1 after2 2 after4 4 after4 4 after2 2 after4 4 after2 2 after2 2 after2 2 after1 1 after1 1 after4 4 after2 2 after1 1 after1 1 after2 2 after4 4 after4 4 after1 1 after2 2 after1 1 after4 4 after2 2 after1 1 after1 1 after2 2 after2 2 after1 1 after1 1 after2 2 after2 2 after4 4 after4 4 after4 4 after1 1 after4 4 after1 1 after2 2 after2 2 after4 4 after4 4 after1 1 after2 2 after1 1 after4 4 after1 1 after1 1 after2 2 after4 4 after1 1 after2 2 after1 1 after4 4 after2 2 after4 4 after1 1 after1 1 after2 2 after4 4 after1 1 after1 1 after2 2 after2 2 after4 4 after4 4 after2 2 after1 1 after1 1 after2 2 after2 2 after4 4 after1 1 after1 1 after4 4 after1 1 after2 2 after2 2 after1 1 after2 2 after4 4 after4 4 after1 1 after4 4 after1 1 after1 1 after1 1 after2 2 after1 1 after1 1 after4 4 after4 4 after2 2 after2 2 after1 1 after1 1 after1 1 after1 1 after2 2 after2 2 after2 2 after4 4 after1 1 after2 2 after1 1 after4 4 after2 2 after4 4 after2 2 after1 1 after2 2 after1 1 after4 4 after2 2 after2 2 after1 1 after1 1 after4 4 after2 2 after1 1 after1 1 after4 4 after1 1 after4 4 after1 1 after1 1 after4 4 after4 4 after1 1 after4 4 after4 4 after2 2 after2 2 after4 4 after4 4 after2 2 after4 4 after1 1 after1 1 after2 2 after4 4 after2 2 after1 1 after1 1 after2 2 after2 2 after2 2 after1 1 after1 1 after2 2 after2 2 after1 1 after1 1 after2 2 after1 1 after1 1 after4 4 after4 4 after2 2 after2 2 after1 1 after1 1 after4 4 after2 2 after2 2 after4 4 after4 4 after2 2 after1 1 after1 1 after2 2 after1 1 after1 1 after2 2 after2 2 after1 1 after1 1 after2 2 after4 4 after2 2 after4 4 after4 4 after4 4 after4 4 after2 2 after1 1 after1 1 after2 2 after4 4 after2 2 after4 4 after2 2 after2 2 after1 1 after1 1 after2 2 after4 4 after1 1 after1 1 after4 4 after2 2 after2 2 after4 4 after4 4 after2 2 after1 1 after1 1 after2 2 after1 1 after1 1 after2 2 after4 4 after2 2 after2 2 after4 4 after1 1 after1 1 after2 2 after2 2 after4 4 after2 2 after4 4 after2 2 after1 1 after4 4 after1 1 after2 2 after1 1 after4 4 after1 1 after2 2 after4 4 after1 1 after4 4 after1 1 after1 1 after1 1 after2 2 after1 1 after2 2 after1 1 after2 2 after4 4 after2 2 after2 2 after2 2 after1 1 after4 4 after1 1 after2 2 after4 4 after2 2 after1 1 after1 1 after2 2 after4 4 after2 2 after1 1 after1 1 after4 4 after4 4 after2 2 after2 2 after1 1 after1 1 after2 2 after2 2 after2 2 after1 1 after4 4 after1 1 after2 2 after2 2 after2 2 after2 2 after2 2 after4 4 after1 1 after1 1 after1 1 after1 1 after4 4 after4 4 after1 1 after1 1 after4 4 after4 4 after1 1 after1 1 after2 2 after4 4 after4 4 after2 2 after4 4 after2 2 after2 2 after1 1 after1 1 after2 2 after2 2 after2 2 after2 2 after1 1 after1 1 after4 4 after4 4 after2 2 after4 4 after2 2 after1 1 after1 1 after2 2 after1 1 after4 4 after1 1 after2 2 after2 2 after2 2 after1 1 after1 1 after4 4 after2 2 after2 2 after2 2 after2 2 after4 4 after1 1 after1 1 after4 4 after4 4 after2 2 after1 1 after1 1 after2 2 after1 1 after4 4 after1 1 after2 2 after1 1 after1 1 after2 2 after4 4 after1 1 after1 1 after4 4 after1 1 after2 2 after1 1 after4 4 after2 2 after2 2 after2 2 after1 1 after1 1 after4 4 after4 4 after2 2 after1 1 after1 1 after2 2 after4 4 after4 4 after1 1 after1 1 after2 2 after2 2 after1 1 after1 1 after4 4 after2 2 after1 1 after2 2 after1 1 after4 4 after1 1 after1 1 after4 4 after2 2 after2 2 after4 4 after4 4 after2 2 after2 2 after1 1 after1 1 after4 4 after4 4 after2 2 after1 1 after1 1 after4 4 after2 2 after2 2 after1 1 after1 1 after1 1 after1 1 after2 2 after4 4 after2 2 after4 4 after2 2 after4 4 after1 1 after4 4 after1 1 after4 4 after4 4 after2 2 after4 4 after2 2 after2 2 after4 4 after1 1 after1 1 after2 2 after2 2 after4 4 after2 2 after2 2 after2 2 after1 1 after2 2 after1 1 after4 4 after1 1 after2 2 after1 1 after2 2 after4 4 after4 4 after4 4 after2 2 after2 2 after1 1 afterFinished CPU 0 instructions: 3000003 cycles: 14307706 cumulative IPC: 0.209677 (Simulation time: 0 hr 0 min 29 sec) 

ChampSim completed all CPUs

Region of Interest Statistics

CPU 0 cumulative IPC: 0.209677 instructions: 3000003 cycles: 14307706
L1D TOTAL     ACCESS:     780585  HIT:     512223  MISS:     268362
L1D LOAD      ACCESS:     606563  HIT:     400366  MISS:     206197
L1D RFO       ACCESS:     174022  HIT:     111857  MISS:      62165
L1D PREFETCH  ACCESS:          0  HIT:          0  MISS:          0
L1D WRITEBACK ACCESS:          0  HIT:          0  MISS:          0
L1D PREFETCH  REQUESTED:          0  ISSUED:          0  USEFUL:          0  USELESS:          0
L1D AVERAGE MISS LATENCY: 274.211 cycles
L1I TOTAL     ACCESS:     675657  HIT:     675403  MISS:        254
L1I LOAD      ACCESS:     675657  HIT:     675403  MISS:        254
L1I RFO       ACCESS:          0  HIT:          0  MISS:          0
L1I PREFETCH  ACCESS:          0  HIT:          0  MISS:          0
L1I WRITEBACK ACCESS:          0  HIT:          0  MISS:          0
L1I PREFETCH  REQUESTED:          0  ISSUED:          0  USEFUL:          0  USELESS:          0
L1I AVERAGE MISS LATENCY: 174.713 cycles
L2C TOTAL     ACCESS:     335058  HIT:      75499  MISS:     259559
L2C LOAD      ACCESS:     206451  HIT:       8449  MISS:     198002
L2C RFO       ACCESS:      62165  HIT:        611  MISS:      61554
L2C PREFETCH  ACCESS:          0  HIT:          0  MISS:          0
L2C WRITEBACK ACCESS:      66442  HIT:      66439  MISS:          3
L2C PREFETCH  REQUESTED:          0  ISSUED:          0  USEFUL:          0  USELESS:          0
L2C AVERAGE MISS LATENCY: 242.404 cycles
LLC TOTAL     ACCESS:     328111  HIT:      79008  MISS:     249103
LLC LOAD      ACCESS:     198002  HIT:       6737  MISS:     191265
LLC RFO       ACCESS:      61554  HIT:       3716  MISS:      57838
LLC PREFETCH  ACCESS:          0  HIT:          0  MISS:          0
LLC WRITEBACK ACCESS:      68555  HIT:      68555  MISS:          0
LLC PREFETCH  REQUESTED:          0  ISSUED:          0  USEFUL:          0  USELESS:          0
LLC AVERAGE MISS LATENCY: 198.471 cycles
Major fault: 0 Minor fault: 66531

DRAM Statistics
 CHANNEL 0
 RQ ROW_BUFFER_HIT:      63064  ROW_BUFFER_MISS:     186037
 DBUS_CONGESTED:      91524
 WQ ROW_BUFFER_HIT:       3399  ROW_BUFFER_MISS:      28520  FULL:          0

 AVG_CONGESTED_CYCLE: 6

CPU 0 Branch Prediction Accuracy: 99.1849% MPKI: 1.082 Average ROB Occupancy at Mispredict: 72.5308

Branch types
NOT_BRANCH: 2601756 86.7251%
BRANCH_DIRECT_JUMP: 78109 2.60363%
BRANCH_INDIRECT: 0 0%
BRANCH_CONDITIONAL: 319789 10.6596%
BRANCH_DIRECT_CALL: 160 0.00533333%
BRANCH_INDIRECT_CALL: 0 0%
BRANCH_RETURN: 159 0.00529999%
BRANCH_OTHER: 0 0%

