
*** ChampSim Multicore Out-of-Order Simulator ***

Warmup Instructions: 10000000
Simulation Instructions: 10000000
Number of CPUs: 1
LLC sets: 4096
LLC ways: 32
Off-chip DRAM Size: 1024 MB Channels: 1 Width: 64-bit Data Rate: 3200 MT/s

CPU 0 runs ../traces//kissat-inc-high-30K-1802B.champsimtrace.xz
CPU 0 Bimodal branch predictor
