
*** ChampSim Multicore Out-of-Order Simulator ***

Warmup Instructions: 20000000
Simulation Instructions: 30000000
Number of CPUs: 1
LLC sets: 2048
LLC ways: 16
Off-chip DRAM Size: 4096 MB Channels: 1 Width: 64-bit Data Rate: 3200 MT/s

CPU 0 runs ../traces//400.perlbench-41B.champsimtrace.xz
CPU 0 Bimodal branch predictor
CPU 0 L2C next line prefetcher
11, 2, 12, 3, 13, 3, 6, 6, 9, 0, 3, 2, 6, 1, 5, 3, 7, 3, 7, 1, 3, 3, 3, 4, 4, 3, 4, 3, 3, 1, 1, 0, 2, 0, 2, 1, 2, 0, 0, 2, 2, 1, 2, 4, 4, 1, 
16, 13, 9, 7, 9, 6, 7, 6, 13, 6, 9, 3, 7, 7, 11, 4, 13, 4, 5, 2, 11, 0, 4, 5, 6, 6, 7, 2, 6, 4, 3, 3, 6, 0, 5, 0, 4, 5, 2, 3, 4, 3, 3, 1, 3, 0, 
17, 14, 14, 12, 14, 10, 9, 12, 10, 6, 5, 8, 6, 5, 8, 4, 9, 5, 5, 3, 3, 6, 8, 6, 9, 4, 8, 7, 4, 4, 2, 4, 5, 6, 6, 5, 2, 3, 5, 4, 4, 1, 6, 7, 4, 4, 
17, 12, 17, 11, 9, 9, 10, 4, 11, 6, 10, 8, 13, 6, 10, 3, 10, 2, 7, 3, 7, 1, 6, 4, 7, 3, 6, 10, 5, 3, 6, 5, 8, 5, 6, 6, 5, 2, 5, 1, 4, 1, 2, 2, 2, 5, 
13, 12, 12, 8, 11, 7, 10, 5, 8, 3, 6, 8, 9, 8, 6, 6, 10, 10, 6, 4, 8, 3, 3, 4, 4, 5, 6, 4, 3, 2, 4, 4, 5, 3, 6, 1, 2, 2, 3, 3, 0, 8, 4, 4, 2, 7, 
16, 13, 17, 13, 8, 10, 11, 8, 10, 7, 11, 2, 7, 7, 10, 7, 7, 4, 4, 6, 5, 3, 4, 4, 5, 7, 7, 4, 4, 2, 6, 5, 8, 4, 6, 4, 5, 2, 9, 8, 6, 2, 5, 3, 6, 4, 
16, 12, 10, 8, 9, 10, 8, 5, 6, 4, 10, 7, 4, 4, 1, 4, 4, 6, 5, 6, 5, 6, 6, 5, 4, 5, 7, 5, 7, 5, 1, 4, 3, 2, 3, 2, 3, 0, 2, 2, 3, 3, 5, 2, 2, 7, 
11, 9, 12, 6, 6, 3, 11, 6, 7, 6, 6, 5, 5, 6, 8, 5, 3, 4, 3, 5, 3, 4, 5, 1, 4, 3, 5, 3, 2, 0, 8, 1, 4, 1, 3, 0, 5, 2, 4, 0, 1, 0, 2, 1, 1, 1, 
10, 13, 10, 8, 13, 9, 6, 8, 9, 5, 8, 6, 7, 9, 6, 8, 9, 7, 10, 9, 6, 3, 8, 2, 12, 4, 7, 2, 5, 3, 7, 2, 4, 5, 3, 3, 8, 2, 3, 4, 5, 3, 6, 4, 0, 2, 
17, 16, 14, 7, 12, 13, 9, 14, 8, 8, 8, 7, 11, 8, 5, 6, 5, 11, 6, 7, 4, 7, 5, 6, 3, 6, 6, 6, 6, 5, 7, 5, 5, 6, 7, 5, 6, 3, 4, 4, 3, 9, 2, 3, 4, 3, 
13, 11, 13, 10, 12, 7, 11, 12, 10, 12, 10, 10, 11, 10, 9, 7, 10, 5, 5, 4, 7, 8, 8, 5, 9, 3, 5, 7, 8, 3, 8, 2, 3, 6, 3, 5, 5, 2, 4, 4, 5, 3, 3, 2, 3, 4, 
19, 15, 15, 14, 11, 12, 12, 9, 8, 12, 4, 12, 6, 10, 11, 13, 9, 11, 10, 8, 7, 8, 9, 9, 9, 3, 6, 5, 5, 4, 7, 2, 7, 2, 8, 6, 7, 10, 7, 7, 6, 2, 6, 7, 5, 4, 
18, 15, 18, 10, 15, 10, 11, 8, 13, 8, 11, 8, 11, 8, 10, 8, 10, 7, 7, 8, 7, 8, 7, 10, 9, 6, 9, 6, 11, 4, 7, 8, 4, 4, 4, 4, 5, 7, 7, 9, 9, 8, 5, 4, 6, 3, 
19, 15, 16, 12, 16, 8, 11, 11, 9, 9, 9, 13, 9, 10, 8, 10, 9, 5, 8, 9, 7, 7, 3, 4, 5, 5, 5, 8, 7, 8, 7, 8, 9, 8, 8, 6, 7, 5, 5, 4, 6, 9, 1, 3, 2, 3, 
19, 16, 17, 15, 12, 13, 8, 12, 15, 13, 8, 14, 10, 13, 12, 10, 11, 12, 7, 10, 8, 10, 9, 11, 9, 11, 10, 8, 10, 3, 10, 8, 11, 8, 7, 7, 12, 4, 8, 12, 8, 5, 6, 8, 6, 4, 
17, 17, 17, 10, 11, 11, 11, 9, 9, 13, 7, 14, 11, 12, 12, 6, 12, 11, 10, 11, 13, 5, 9, 9, 11, 5, 7, 7, 4, 6, 7, 6, 5, 9, 7, 5, 8, 9, 5, 5, 5, 7, 6, 4, 9, 4, 
20, 18, 17, 17, 18, 12, 13, 14, 5, 14, 13, 17, 10, 12, 11, 14, 5, 13, 11, 10, 8, 8, 10, 8, 9, 4, 7, 3, 6, 4, 5, 5, 6, 4, 8, 10, 3, 4, 5, 9, 9, 6, 6, 5, 2, 8, 
19, 15, 15, 11, 12, 12, 12, 12, 10, 13, 9, 8, 12, 11, 12, 8, 8, 12, 11, 8, 7, 7, 7, 7, 8, 8, 6, 7, 6, 4, 10, 7, 8, 8, 4, 3, 8, 5, 5, 9, 3, 7, 5, 3, 4, 1, 
21, 16, 15, 12, 13, 13, 13, 16, 13, 13, 10, 13, 10, 11, 14, 7, 7, 11, 7, 9, 9, 7, 4, 9, 5, 12, 9, 7, 8, 7, 10, 7, 10, 5, 4, 11, 6, 6, 8, 7, 6, 0, 3, 8, 4, 3, 
21, 17, 14, 16, 13, 15, 18, 14, 12, 14, 11, 9, 14, 9, 12, 11, 11, 9, 9, 12, 8, 8, 5, 6, 7, 6, 11, 7, 8, 7, 4, 7, 11, 8, 11, 7, 6, 3, 8, 4, 5, 4, 5, 6, 6, 9, 
17, 15, 19, 15, 14, 13, 11, 17, 10, 13, 11, 14, 5, 12, 11, 10, 12, 11, 9, 9, 11, 10, 7, 11, 8, 6, 5, 4, 4, 4, 7, 7, 9, 5, 6, 6, 7, 6, 7, 7, 8, 6, 5, 5, 1, 6, 
19, 16, 17, 14, 13, 12, 12, 8, 10, 7, 13, 8, 11, 2, 8, 7, 6, 7, 13, 8, 7, 4, 8, 8, 8, 5, 9, 8, 7, 6, 5, 6, 8, 5, 4, 3, 6, 5, 4, 8, 7, 6, 6, 8, 5, 3, 
16, 18, 16, 14, 16, 13, 13, 11, 12, 13, 10, 10, 11, 12, 11, 13, 6, 10, 12, 11, 10, 11, 9, 12, 8, 11, 8, 7, 8, 9, 8, 9, 8, 7, 6, 7, 4, 5, 4, 7, 7, 9, 7, 3, 9, 5, 
20, 17, 19, 15, 10, 14, 15, 12, 14, 12, 15, 14, 8, 13, 6, 13, 11, 11, 13, 17, 11, 13, 8, 11, 8, 11, 13, 12, 12, 10, 9, 5, 8, 3, 9, 4, 4, 7, 6, 5, 7, 10, 14, 11, 8, 4, 
19, 19, 16, 10, 13, 12, 13, 12, 10, 9, 10, 13, 7, 12, 10, 13, 12, 10, 6, 11, 15, 10, 6, 7, 6, 10, 6, 7, 5, 13, 5, 10, 5, 4, 8, 4, 8, 3, 8, 7, 9, 7, 6, 10, 9, 6, 
17, 11, 19, 15, 14, 12, 12, 15, 8, 12, 13, 14, 13, 11, 9, 10, 12, 9, 11, 10, 8, 8, 10, 9, 9, 7, 7, 7, 6, 3, 9, 6, 9, 7, 5, 5, 8, 2, 6, 8, 4, 8, 4, 7, 5, 6, 
15, 8, 13, 13, 12, 7, 12, 13, 13, 6, 14, 7, 10, 7, 8, 8, 9, 13, 9, 7, 14, 7, 11, 4, 7, 1, 7, 9, 7, 7, 6, 5, 9, 5, 8, 7, 5, 5, 11, 3, 5, 4, 6, 5, 7, 3, 
12, 11, 12, 11, 8, 11, 8, 11, 9, 11, 8, 8, 7, 9, 10, 10, 12, 8, 10, 9, 6, 8, 7, 5, 8, 6, 8, 7, 7, 6, 9, 9, 9, 4, 6, 4, 8, 5, 9, 7, 4, 6, 5, 4, 2, 5, 
19, 12, 17, 11, 13, 17, 12, 10, 8, 14, 13, 12, 12, 10, 7, 10, 9, 7, 7, 12, 9, 9, 7, 3, 10, 8, 7, 10, 9, 9, 9, 11, 9, 7, 9, 9, 8, 9, 7, 8, 5, 7, 9, 6, 8, 8, 
21, 15, 20, 18, 21, 13, 16, 13, 11, 12, 17, 14, 11, 12, 13, 9, 9, 9, 6, 11, 12, 11, 11, 9, 11, 8, 10, 10, 11, 6, 11, 8, 7, 5, 10, 11, 10, 3, 9, 4, 7, 5, 10, 6, 8, 5, 
19, 13, 16, 13, 15, 16, 14, 11, 20, 13, 15, 12, 13, 14, 10, 11, 7, 12, 10, 10, 16, 11, 12, 4, 15, 6, 6, 12, 9, 10, 9, 15, 9, 6, 11, 7, 7, 8, 8, 10, 8, 4, 6, 8, 7, 7, 
21, 16, 19, 15, 15, 14, 14, 12, 11, 14, 12, 13, 8, 17, 11, 13, 13, 11, 10, 11, 11, 11, 8, 12, 9, 9, 7, 9, 8, 8, 9, 10, 7, 11, 5, 6, 8, 5, 9, 7, 7, 7, 10, 12, 7, 7, 
21, 15, 16, 13, 15, 14, 10, 13, 12, 7, 13, 10, 14, 11, 9, 8, 8, 12, 7, 8, 7, 10, 9, 9, 9, 7, 7, 5, 8, 6, 11, 6, 7, 6, 6, 5, 11, 8, 8, 8, 8, 8, 11, 9, 7, 8, 
20, 15, 18, 14, 15, 10, 11, 10, 10, 10, 13, 13, 12, 11, 7, 12, 10, 10, 10, 7, 10, 12, 11, 8, 14, 8, 14, 7, 13, 9, 10, 6, 8, 6, 8, 6, 5, 6, 11, 6, 5, 10, 5, 4, 4, 3, 
20, 16, 14, 14, 13, 12, 15, 15, 15, 12, 13, 13, 11, 17, 8, 11, 11, 13, 11, 9, 9, 9, 9, 10, 8, 9, 9, 11, 12, 4, 11, 6, 9, 6, 2, 8, 9, 5, 3, 4, 8, 5, 1, 5, 3, 9, 
21, 17, 15, 12, 17, 9, 13, 11, 10, 12, 11, 12, 10, 15, 9, 9, 12, 12, 7, 10, 11, 14, 12, 11, 12, 7, 11, 10, 6, 6, 3, 5, 8, 7, 10, 9, 6, 5, 8, 2, 10, 5, 9, 5, 9, 5, 
16, 18, 20, 15, 16, 14, 12, 11, 13, 16, 9, 10, 9, 13, 12, 14, 12, 9, 12, 9, 12, 10, 9, 6, 9, 10, 6, 10, 13, 8, 9, 7, 6, 3, 2, 5, 5, 5, 8, 13, 10, 6, 11, 8, 4, 4, 
19, 18, 19, 14, 17, 13, 15, 13, 15, 10, 14, 10, 8, 6, 7, 13, 11, 10, 10, 9, 13, 11, 12, 12, 11, 10, 9, 7, 8, 8, 10, 7, 9, 10, 8, 9, 4, 10, 7, 9, 10, 7, 7, 8, 5, 4, 
21, 17, 12, 15, 12, 12, 12, 12, 8, 11, 7, 11, 11, 11, 9, 16, 9, 9, 8, 10, 7, 8, 3, 8, 8, 8, 7, 5, 5, 4, 8, 11, 8, 9, 10, 4, 6, 5, 6, 9, 5, 6, 4, 3, 6, 6, 
19, 20, 17, 12, 17, 14, 16, 16, 13, 14, 7, 11, 10, 7, 11, 8, 12, 4, 12, 12, 9, 9, 13, 12, 12, 7, 7, 5, 7, 4, 10, 7, 9, 7, 12, 6, 8, 4, 9, 9, 7, 5, 8, 12, 5, 6, 
22, 15, 15, 14, 13, 11, 13, 14, 13, 11, 12, 13, 9, 14, 10, 13, 10, 9, 10, 9, 7, 13, 6, 7, 5, 8, 8, 4, 7, 6, 11, 7, 7, 9, 5, 9, 9, 10, 5, 3, 7, 9, 6, 9, 5, 11, 
21, 15, 15, 15, 14, 14, 10, 14, 12, 12, 14, 5, 10, 11, 15, 13, 9, 14, 8, 11, 8, 9, 12, 9, 12, 5, 12, 14, 12, 11, 11, 13, 9, 6, 8, 7, 7, 7, 10, 12, 6, 11, 6, 8, 10, 7, 
19, 13, 18, 17, 13, 17, 13, 16, 11, 15, 14, 13, 9, 9, 10, 9, 10, 12, 11, 11, 8, 10, 8, 5, 7, 8, 10, 6, 9, 7, 11, 8, 10, 10, 10, 9, 7, 11, 10, 5, 8, 8, 8, 6, 6, 7, 
22, 21, 15, 11, 17, 14, 16, 7, 14, 14, 13, 12, 13, 15, 12, 10, 10, 10, 9, 12, 10, 12, 13, 10, 11, 6, 5, 10, 12, 10, 9, 8, 9, 7, 5, 8, 10, 8, 4, 5, 8, 8, 6, 10, 5, 7, 
21, 19, 18, 15, 12, 12, 14, 9, 12, 9, 11, 10, 9, 11, 11, 6, 8, 12, 10, 9, 8, 7, 11, 10, 13, 6, 12, 10, 10, 11, 11, 11, 8, 6, 5, 4, 5, 7, 6, 9, 7, 9, 7, 5, 2, 8, 
20, 17, 20, 18, 19, 13, 13, 16, 12, 16, 8, 13, 9, 6, 14, 8, 11, 10, 9, 14, 10, 9, 10, 9, 9, 10, 11, 6, 7, 4, 10, 5, 10, 7, 4, 7, 8, 7, 10, 5, 5, 6, 10, 5, 8, 8, 
21, 19, 20, 18, 12, 13, 16, 14, 16, 14, 17, 15, 14, 9, 12, 11, 13, 9, 11, 12, 13, 7, 12, 10, 10, 9, 10, 12, 6, 12, 8, 8, 6, 7, 9, 7, 8, 11, 7, 6, 4, 8, 4, 7, 6, 6, 
20, 17, 17, 14, 18, 15, 10, 13, 13, 17, 9, 15, 8, 14, 12, 10, 8, 10, 11, 11, 10, 5, 9, 9, 10, 3, 7, 6, 6, 9, 9, 8, 7, 11, 9, 8, 9, 7, 11, 4, 7, 8, 8, 5, 6, 2, 
18, 19, 17, 18, 14, 15, 15, 12, 18, 13, 12, 11, 11, 13, 12, 8, 10, 10, 4, 11, 9, 10, 10, 7, 9, 13, 11, 4, 9, 8, 11, 7, 9, 8, 9, 5, 11, 5, 10, 9, 8, 8, 8, 6, 10, 7, 
16, 16, 17, 11, 11, 9, 12, 8, 13, 9, 14, 14, 9, 7, 9, 8, 10, 15, 12, 8, 7, 10, 13, 9, 11, 7, 10, 10, 11, 8, 8, 10, 10, 9, 11, 8, 7, 8, 7, 4, 5, 6, 6, 6, 7, 7, 
22, 17, 20, 19, 15, 17, 12, 16, 14, 16, 12, 16, 14, 12, 10, 7, 9, 10, 9, 9, 9, 6, 7, 7, 14, 11, 5, 15, 7, 6, 7, 8, 8, 7, 8, 7, 7, 8, 5, 10, 7, 8, 6, 9, 6, 8, 
20, 18, 17, 15, 15, 14, 15, 12, 9, 13, 9, 12, 12, 11, 8, 10, 12, 10, 9, 11, 11, 12, 11, 12, 9, 12, 8, 12, 6, 11, 11, 13, 11, 8, 7, 4, 10, 9, 10, 6, 6, 6, 7, 6, 9, 2, 
18, 19, 20, 17, 13, 14, 14, 16, 13, 10, 11, 12, 12, 10, 12, 10, 11, 9, 12, 10, 10, 8, 11, 13, 11, 12, 7, 12, 7, 6, 11, 10, 6, 6, 8, 6, 4, 8, 6, 8, 7, 8, 7, 7, 4, 2, 
18, 13, 15, 12, 16, 14, 14, 12, 17, 15, 13, 13, 10, 11, 14, 12, 11, 13, 12, 15, 11, 10, 10, 10, 8, 8, 10, 10, 10, 8, 9, 7, 9, 6, 7, 9, 8, 7, 10, 9, 7, 11, 7, 10, 6, 6, 
21, 17, 19, 16, 14, 13, 14, 14, 16, 13, 13, 13, 15, 9, 11, 10, 12, 15, 8, 10, 8, 13, 6, 7, 9, 8, 9, 9, 10, 5, 10, 8, 11, 7, 9, 7, 11, 4, 9, 4, 3, 7, 8, 4, 7, 4, 
20, 16, 17, 14, 19, 11, 13, 12, 14, 10, 15, 10, 11, 7, 13, 10, 10, 9, 9, 6, 10, 10, 7, 11, 8, 7, 6, 9, 11, 5, 3, 8, 8, 9, 6, 9, 5, 7, 6, 5, 7, 11, 9, 7, 11, 4, 
17, 19, 20, 21, 19, 14, 19, 15, 16, 16, 16, 13, 11, 10, 9, 10, 12, 5, 10, 8, 11, 7, 11, 16, 9, 10, 8, 8, 9, 11, 7, 11, 9, 5, 8, 6, 7, 8, 7, 8, 7, 3, 7, 4, 9, 5, 
19, 18, 18, 13, 14, 18, 14, 14, 12, 13, 15, 11, 14, 9, 13, 13, 10, 13, 8, 13, 11, 11, 8, 9, 9, 11, 12, 11, 8, 12, 9, 10, 8, 10, 5, 11, 11, 9, 12, 7, 8, 7, 8, 5, 7, 7, 
21, 21, 20, 14, 15, 17, 18, 17, 13, 12, 13, 13, 17, 15, 13, 12, 13, 10, 11, 11, 11, 5, 12, 9, 7, 9, 7, 10, 4, 3, 7, 7, 7, 9, 7, 7, 6, 8, 7, 7, 7, 9, 8, 6, 7, 6, 
16, 17, 18, 14, 16, 16, 16, 12, 11, 12, 10, 10, 10, 9, 9, 13, 9, 8, 10, 6, 6, 13, 9, 6, 6, 11, 7, 9, 10, 5, 8, 11, 12, 1, 9, 8, 11, 7, 9, 10, 8, 9, 12, 6, 8, 9, 
21, 18, 18, 12, 14, 15, 11, 10, 14, 11, 11, 16, 11, 14, 12, 11, 7, 8, 11, 8, 6, 9, 7, 7, 8, 8, 8, 7, 9, 5, 8, 6, 5, 10, 4, 7, 10, 7, 4, 11, 10, 6, 10, 7, 3, 4, 
20, 19, 21, 17, 13, 18, 17, 12, 15, 10, 12, 14, 14, 10, 14, 10, 12, 8, 11, 10, 7, 8, 9, 8, 7, 7, 8, 5, 11, 10, 13, 8, 9, 7, 4, 11, 8, 10, 8, 6, 10, 8, 11, 6, 8, 2, 
19, 21, 19, 17, 17, 15, 12, 16, 14, 11, 12, 11, 10, 12, 10, 17, 12, 13, 11, 14, 12, 7, 9, 9, 5, 12, 14, 5, 11, 9, 10, 9, 12, 6, 5, 7, 12, 4, 6, 5, 6, 8, 7, 8, 1, 8, 
21, 18, 20, 16, 16, 15, 14, 18, 14, 13, 14, 12, 12, 12, 8, 14, 9, 8, 9, 13, 13, 5, 11, 9, 10, 8, 8, 11, 12, 14, 7, 10, 10, 8, 7, 8, 12, 8, 8, 9, 10, 7, 5, 11, 6, 9, 
19, 16, 16, 10, 8, 16, 9, 12, 16, 11, 5, 8, 11, 13, 12, 14, 9, 11, 12, 12, 11, 11, 8, 10, 8, 6, 9, 7, 6, 8, 5, 6, 8, 7, 4, 7, 10, 11, 3, 3, 5, 7, 5, 3, 5, 8, 
20, 19, 20, 18, 16, 12, 13, 17, 15, 13, 16, 11, 8, 15, 13, 14, 9, 10, 16, 10, 9, 7, 11, 9, 11, 7, 9, 6, 11, 6, 7, 9, 13, 7, 12, 8, 6, 5, 5, 7, 4, 7, 10, 6, 7, 7, 
21, 21, 21, 17, 16, 16, 15, 14, 14, 14, 9, 16, 9, 12, 10, 12, 12, 12, 11, 12, 10, 14, 10, 10, 10, 12, 9, 12, 12, 11, 6, 8, 11, 7, 5, 4, 8, 7, 7, 3, 10, 2, 8, 5, 7, 8, 
20, 16, 19, 15, 15, 15, 11, 15, 9, 12, 13, 13, 10, 13, 11, 10, 13, 13, 11, 8, 12, 8, 9, 8, 8, 7, 11, 8, 12, 7, 5, 7, 9, 6, 11, 9, 9, 5, 7, 5, 11, 4, 7, 5, 6, 3, 
19, 12, 19, 16, 17, 16, 12, 14, 14, 17, 12, 13, 10, 10, 10, 15, 9, 10, 11, 9, 8, 10, 8, 8, 9, 7, 7, 8, 9, 7, 11, 9, 9, 9, 14, 7, 9, 10, 10, 8, 10, 9, 10, 8, 7, 5, 
15, 15, 15, 16, 14, 11, 10, 9, 13, 11, 15, 12, 13, 7, 10, 11, 9, 13, 11, 12, 8, 9, 9, 6, 9, 7, 8, 9, 4, 7, 7, 9, 6, 9, 9, 7, 4, 4, 4, 5, 3, 8, 5, 7, 7, 4, 
19, 18, 18, 11, 10, 11, 14, 14, 13, 15, 14, 8, 11, 10, 12, 9, 12, 10, 11, 11, 9, 8, 11, 5, 15, 6, 14, 6, 13, 8, 9, 8, 10, 9, 12, 8, 10, 7, 10, 4, 9, 9, 7, 3, 6, 6, 
19, 17, 20, 19, 14, 17, 15, 15, 12, 16, 9, 14, 8, 10, 11, 13, 9, 14, 7, 12, 7, 11, 10, 12, 9, 4, 12, 8, 8, 9, 9, 7, 9, 8, 7, 3, 9, 8, 12, 10, 9, 8, 5, 8, 8, 6, 
21, 20, 18, 14, 14, 15, 14, 13, 15, 13, 12, 13, 12, 14, 14, 12, 15, 14, 14, 16, 12, 13, 12, 15, 9, 13, 9, 9, 7, 9, 11, 11, 5, 9, 8, 6, 5, 9, 8, 8, 5, 10, 3, 9, 8, 6, 
17, 17, 17, 11, 13, 9, 11, 9, 11, 11, 7, 8, 9, 9, 9, 11, 9, 11, 13, 8, 9, 6, 13, 9, 8, 4, 10, 8, 10, 8, 8, 6, 5, 6, 5, 8, 4, 9, 8, 5, 7, 7, 5, 3, 7, 4, 
20, 16, 17, 18, 13, 13, 15, 12, 14, 15, 15, 13, 12, 12, 12, 11, 13, 12, 13, 11, 12, 13, 6, 10, 9, 9, 13, 7, 10, 7, 8, 8, 5, 8, 7, 5, 9, 8, 8, 7, 8, 10, 7, 11, 5, 9, 
12, 12, 14, 12, 9, 7, 10, 6, 5, 7, 6, 9, 6, 7, 6, 7, 9, 7, 8, 6, 4, 4, 9, 7, 7, 4, 6, 5, 7, 6, 7, 5, 1, 4, 5, 5, 6, 3, 7, 3, 3, 8, 6, 5, 5, 5, 
19, 15, 15, 16, 15, 14, 13, 9, 8, 9, 10, 12, 12, 5, 9, 9, 7, 9, 10, 6, 8, 2, 5, 3, 3, 4, 6, 7, 7, 3, 9, 6, 6, 3, 5, 4, 6, 7, 4, 2, 8, 7, 7, 5, 7, 7, 
18, 17, 14, 13, 15, 17, 10, 12, 12, 12, 10, 10, 11, 7, 9, 9, 11, 8, 9, 13, 10, 9, 14, 13, 16, 10, 14, 11, 10, 11, 9, 11, 8, 10, 12, 10, 8, 7, 10, 6, 8, 9, 5, 6, 8, 7, 
20, 18, 17, 15, 14, 15, 13, 12, 16, 11, 15, 12, 5, 13, 7, 10, 9, 7, 12, 15, 14, 6, 9, 12, 8, 7, 13, 7, 10, 9, 10, 9, 8, 11, 3, 4, 7, 7, 8, 4, 6, 6, 5, 3, 8, 4, 
19, 16, 19, 17, 18, 16, 14, 17, 15, 14, 12, 13, 6, 12, 14, 10, 13, 15, 8, 11, 8, 8, 8, 9, 9, 11, 11, 10, 7, 7, 5, 5, 7, 8, 7, 7, 10, 11, 7, 4, 9, 4, 9, 11, 8, 8, 
20, 19, 15, 17, 16, 13, 17, 17, 11, 14, 10, 11, 12, 12, 10, 8, 9, 15, 10, 10, 9, 8, 9, 12, 13, 8, 8, 9, 7, 9, 8, 10, 12, 12, 8, 10, 9, 7, 11, 7, 12, 10, 10, 7, 10, 10, 
20, 18, 20, 15, 15, 16, 16, 15, 18, 11, 19, 13, 13, 11, 12, 11, 13, 17, 15, 14, 6, 12, 6, 11, 6, 10, 12, 8, 9, 6, 10, 7, 11, 7, 11, 7, 7, 8, 7, 8, 8, 4, 8, 8, 8, 5, 
21, 19, 19, 16, 16, 14, 17, 11, 13, 13, 17, 13, 15, 10, 10, 14, 10, 12, 7, 16, 12, 13, 11, 8, 10, 8, 13, 9, 13, 10, 9, 5, 7, 8, 12, 8, 9, 8, 8, 7, 7, 8, 8, 4, 13, 5, 
21, 15, 19, 18, 15, 14, 14, 10, 14, 18, 11, 11, 12, 12, 14, 13, 11, 13, 12, 13, 11, 15, 14, 6, 18, 12, 10, 8, 11, 12, 12, 11, 11, 8, 9, 13, 10, 9, 9, 7, 11, 10, 7, 7, 9, 5, 
15, 17, 17, 17, 11, 13, 14, 12, 13, 13, 9, 12, 12, 11, 12, 13, 14, 14, 11, 14, 9, 8, 5, 5, 8, 7, 12, 11, 10, 11, 12, 6, 13, 8, 10, 8, 8, 6, 6, 5, 7, 8, 5, 10, 6, 8, 
21, 13, 15, 15, 19, 12, 15, 14, 14, 12, 15, 12, 10, 11, 12, 12, 10, 13, 15, 12, 8, 11, 11, 9, 11, 9, 9, 7, 11, 9, 6, 9, 6, 9, 8, 5, 9, 10, 10, 7, 11, 6, 10, 8, 9, 8, 
20, 14, 18, 16, 14, 11, 12, 18, 14, 11, 12, 11, 11, 13, 8, 13, 10, 13, 11, 9, 8, 7, 9, 8, 7, 10, 10, 8, 9, 9, 13, 10, 9, 10, 11, 8, 7, 6, 7, 6, 7, 6, 8, 6, 11, 7, 
16, 17, 17, 15, 15, 14, 12, 9, 10, 12, 11, 11, 9, 13, 10, 7, 7, 9, 11, 11, 10, 9, 10, 9, 7, 12, 8, 12, 8, 10, 8, 7, 11, 12, 6, 8, 9, 5, 8, 6, 14, 6, 8, 9, 8, 6, 
13, 10, 15, 12, 14, 8, 11, 10, 8, 5, 10, 12, 12, 6, 9, 8, 7, 12, 10, 5, 11, 8, 9, 6, 11, 4, 8, 8, 9, 8, 9, 9, 7, 7, 8, 5, 7, 6, 6, 7, 6, 2, 5, 4, 5, 3, 
18, 19, 20, 17, 19, 13, 15, 18, 16, 16, 14, 12, 11, 17, 15, 15, 14, 11, 15, 13, 14, 13, 12, 13, 13, 8, 9, 10, 9, 7, 8, 6, 10, 4, 9, 9, 8, 6, 10, 4, 7, 6, 8, 8, 11, 6, 
19, 17, 19, 10, 13, 13, 14, 14, 12, 11, 9, 10, 11, 11, 11, 10, 11, 5, 10, 9, 8, 9, 11, 9, 12, 14, 12, 10, 9, 8, 9, 6, 9, 8, 5, 5, 7, 4, 7, 3, 8, 4, 3, 5, 9, 5, 
11, 12, 12, 8, 13, 6, 13, 4, 17, 5, 11, 6, 12, 3, 12, 2, 11, 5, 7, 3, 11, 2, 8, 4, 9, 4, 11, 5, 7, 3, 5, 2, 10, 3, 8, 4, 8, 2, 7, 0, 4, 4, 5, 1, 3, 2, 
14, 9, 14, 11, 14, 4, 18, 4, 14, 3, 9, 8, 12, 7, 13, 7, 12, 4, 14, 1, 10, 5, 8, 2, 9, 1, 7, 1, 10, 1, 7, 1, 9, 1, 6, 2, 8, 3, 7, 1, 6, 2, 3, 2, 7, 5, 
15, 12, 13, 8, 12, 8, 11, 6, 13, 5, 11, 7, 14, 2, 18, 3, 13, 4, 14, 0, 10, 2, 10, 1, 14, 1, 10, 2, 7, 2, 8, 1, 8, 2, 10, 4, 10, 1, 8, 1, 5, 0, 8, 4, 5, 3, 
16, 7, 11, 5, 14, 7, 12, 7, 16, 5, 12, 7, 13, 2, 10, 7, 13, 5, 11, 4, 8, 2, 14, 4, 7, 3, 11, 4, 10, 0, 9, 5, 10, 3, 7, 3, 8, 3, 8, 1, 8, 4, 6, 5, 5, 2, 
12, 9, 17, 6, 18, 6, 15, 5, 12, 4, 16, 7, 15, 1, 15, 7, 12, 2, 11, 4, 13, 6, 11, 2, 12, 1, 11, 2, 11, 2, 7, 5, 9, 2, 9, 3, 8, 5, 14, 1, 10, 1, 9, 2, 6, 3, 
14, 9, 20, 7, 18, 7, 19, 3, 17, 2, 13, 7, 17, 3, 14, 2, 9, 8, 12, 2, 8, 5, 13, 5, 14, 3, 10, 2, 10, 1, 11, 1, 7, 2, 10, 6, 13, 3, 9, 1, 6, 3, 8, 3, 7, 7, 
17, 17, 14, 10, 17, 14, 14, 11, 12, 12, 14, 7, 12, 7, 11, 11, 11, 4, 10, 5, 7, 6, 6, 5, 6, 7, 6, 9, 11, 8, 8, 5, 6, 8, 9, 6, 8, 6, 7, 4, 6, 5, 6, 5, 6, 6, 
18, 11, 13, 9, 13, 8, 16, 5, 11, 1, 14, 6, 13, 6, 8, 8, 11, 6, 11, 2, 12, 4, 9, 4, 11, 8, 13, 6, 8, 5, 8, 4, 4, 7, 5, 2, 6, 1, 9, 3, 8, 7, 8, 4, 9, 5, 
13, 11, 19, 6, 16, 6, 16, 6, 16, 6, 13, 1, 15, 2, 9, 5, 11, 5, 8, 4, 10, 9, 10, 2, 14, 4, 12, 3, 6, 6, 9, 3, 10, 6, 9, 6, 8, 2, 7, 2, 5, 4, 7, 5, 9, 3, 
19, 6, 18, 5, 15, 3, 14, 4, 10, 6, 11, 10, 12, 8, 17, 2, 12, 4, 17, 5, 12, 4, 10, 8, 12, 5, 9, 4, 10, 6, 10, 4, 13, 0, 8, 2, 11, 2, 7, 5, 6, 3, 11, 2, 6, 3, 
19, 12, 16, 8, 17, 9, 10, 8, 11, 3, 13, 11, 5, 6, 10, 4, 9, 12, 7, 7, 7, 5, 3, 4, 6, 7, 9, 9, 8, 6, 6, 8, 9, 2, 11, 3, 5, 3, 4, 3, 9, 5, 7, 3, 10, 3, 
17, 14, 15, 14, 14, 11, 13, 11, 17, 9, 14, 11, 6, 14, 12, 5, 9, 9, 4, 10, 4, 7, 9, 12, 7, 9, 7, 9, 9, 6, 7, 8, 5, 9, 6, 10, 9, 7, 7, 6, 6, 6, 10, 5, 5, 10, 
17, 11, 13, 11, 11, 11, 13, 5, 6, 8, 10, 8, 9, 6, 7, 7, 8, 6, 8, 5, 12, 9, 4, 7, 7, 7, 5, 5, 11, 5, 6, 5, 4, 5, 5, 6, 1, 4, 7, 5, 5, 6, 3, 9, 3, 1, 
20, 18, 16, 15, 12, 14, 8, 10, 10, 10, 14, 12, 9, 13, 11, 12, 8, 11, 6, 6, 10, 8, 6, 9, 8, 10, 11, 5, 13, 7, 8, 6, 8, 8, 9, 4, 8, 5, 7, 6, 11, 3, 5, 2, 8, 6, 
18, 14, 18, 14, 16, 8, 11, 12, 9, 12, 12, 8, 10, 7, 11, 9, 13, 9, 9, 9, 9, 8, 11, 9, 7, 2, 13, 2, 11, 6, 10, 3, 10, 4, 9, 5, 11, 4, 8, 4, 6, 6, 8, 4, 10, 7, 
20, 16, 19, 14, 15, 13, 14, 12, 9, 11, 13, 10, 6, 10, 10, 12, 8, 9, 12, 7, 10, 8, 7, 9, 10, 6, 8, 8, 12, 9, 8, 11, 10, 7, 6, 9, 4, 8, 5, 7, 7, 7, 6, 5, 5, 6, 
17, 14, 15, 16, 18, 14, 14, 14, 12, 15, 15, 12, 10, 10, 7, 12, 7, 10, 12, 7, 10, 5, 9, 7, 11, 9, 15, 8, 12, 10, 4, 12, 7, 4, 12, 6, 9, 10, 10, 5, 8, 8, 9, 9, 7, 4, 
19, 18, 15, 16, 16, 20, 18, 18, 15, 15, 17, 8, 13, 14, 11, 13, 15, 11, 11, 14, 14, 9, 14, 10, 13, 11, 14, 9, 12, 8, 14, 10, 9, 10, 10, 9, 15, 7, 8, 11, 13, 10, 6, 10, 7, 6, 
21, 19, 20, 14, 15, 16, 16, 11, 14, 12, 15, 13, 14, 12, 10, 11, 13, 11, 9, 10, 11, 8, 12, 7, 11, 9, 12, 11, 9, 9, 12, 9, 11, 10, 9, 12, 11, 11, 10, 7, 9, 13, 11, 10, 9, 13, 
20, 20, 17, 15, 18, 15, 19, 17, 14, 16, 16, 17, 12, 9, 14, 15, 12, 13, 13, 13, 12, 15, 10, 14, 11, 10, 7, 7, 13, 9, 7, 11, 6, 13, 9, 10, 8, 10, 10, 8, 7, 13, 7, 9, 5, 6, 
21, 15, 20, 17, 18, 17, 14, 18, 19, 14, 17, 15, 13, 13, 14, 15, 14, 11, 15, 10, 14, 11, 11, 13, 11, 12, 7, 10, 6, 9, 6, 12, 8, 8, 9, 7, 8, 9, 5, 5, 10, 9, 10, 6, 10, 7, 
20, 17, 16, 18, 14, 14, 14, 10, 14, 10, 8, 14, 10, 15, 12, 11, 15, 14, 10, 8, 12, 6, 7, 9, 7, 5, 6, 10, 3, 10, 8, 7, 7, 8, 6, 6, 6, 6, 6, 7, 5, 7, 4, 4, 4, 6, 
22, 18, 16, 17, 15, 12, 13, 14, 13, 14, 13, 14, 10, 11, 11, 10, 10, 7, 7, 9, 7, 8, 7, 7, 13, 7, 10, 9, 10, 12, 10, 6, 9, 9, 10, 5, 6, 4, 9, 9, 8, 10, 10, 5, 8, 4, 
21, 18, 17, 17, 16, 13, 16, 14, 13, 12, 14, 11, 12, 10, 12, 11, 11, 11, 8, 11, 8, 7, 8, 9, 10, 10, 10, 11, 6, 11, 7, 9, 8, 13, 6, 11, 7, 10, 7, 7, 8, 9, 6, 8, 7, 9, 
22, 19, 18, 19, 15, 13, 13, 16, 16, 13, 11, 8, 12, 12, 9, 12, 7, 7, 10, 7, 10, 7, 12, 8, 7, 11, 7, 9, 10, 8, 7, 5, 6, 10, 6, 6, 4, 7, 8, 8, 5, 5, 6, 7, 6, 6, 
22, 18, 19, 15, 19, 14, 15, 15, 11, 7, 14, 14, 12, 6, 8, 7, 11, 12, 12, 9, 12, 15, 7, 9, 7, 10, 7, 12, 12, 10, 5, 7, 5, 6, 6, 9, 3, 9, 10, 8, 9, 13, 10, 7, 6, 6, 
19, 14, 14, 13, 11, 11, 13, 18, 13, 10, 10, 9, 5, 10, 6, 7, 10, 6, 9, 8, 7, 8, 10, 5, 12, 4, 8, 3, 7, 7, 10, 6, 7, 3, 6, 3, 6, 4, 2, 4, 4, 5, 5, 4, 4, 6, 
20, 18, 17, 18, 13, 15, 11, 11, 8, 10, 16, 11, 11, 9, 7, 11, 7, 13, 9, 11, 6, 10, 9, 12, 6, 8, 7, 10, 8, 8, 6, 8, 7, 12, 9, 9, 5, 8, 5, 4, 7, 9, 6, 7, 5, 4, 
19, 18, 21, 14, 17, 15, 13, 15, 14, 13, 12, 11, 14, 13, 15, 12, 11, 13, 9, 12, 12, 13, 13, 10, 12, 12, 12, 8, 10, 13, 7, 7, 10, 7, 10, 11, 11, 9, 8, 14, 9, 10, 9, 7, 9, 5, 
22, 14, 15, 13, 14, 16, 12, 14, 11, 10, 9, 11, 10, 10, 7, 6, 9, 8, 7, 11, 7, 11, 9, 10, 4, 6, 8, 10, 8, 10, 6, 7, 8, 3, 7, 8, 8, 7, 3, 9, 5, 7, 2, 7, 10, 6, 
22, 18, 19, 13, 16, 16, 15, 17, 14, 11, 18, 14, 15, 13, 13, 9, 9, 8, 11, 14, 7, 12, 10, 14, 13, 9, 13, 9, 11, 8, 6, 8, 11, 10, 5, 7, 10, 7, 7, 9, 13, 6, 10, 7, 7, 5, 
21, 19, 16, 15, 18, 12, 15, 14, 16, 12, 14, 14, 12, 13, 10, 13, 13, 14, 14, 8, 7, 10, 9, 9, 7, 7, 13, 9, 8, 9, 12, 9, 13, 10, 7, 6, 9, 11, 8, 10, 10, 11, 11, 5, 5, 5, 
Heartbeat CPU 0 instructions: 10000003 cycles: 4826436 heartbeat IPC: 2.07192 cumulative IPC: 2.07192 (Simulation time: 0 hr 0 min 14 sec) 
20, 14, 12, 13, 14, 15, 10, 12, 7, 14, 14, 13, 10, 8, 10, 12, 12, 17, 9, 10, 9, 8, 11, 10, 9, 8, 6, 9, 6, 12, 7, 6, 6, 6, 6, 10, 7, 5, 3, 8, 4, 7, 3, 5, 3, 4, 
20, 18, 18, 15, 16, 16, 18, 17, 15, 15, 16, 15, 15, 17, 13, 17, 17, 14, 16, 8, 11, 13, 10, 10, 7, 10, 10, 13, 8, 12, 6, 9, 11, 8, 8, 8, 13, 8, 15, 10, 11, 9, 6, 10, 10, 7, 
20, 18, 19, 16, 16, 15, 14, 12, 12, 10, 15, 8, 11, 10, 14, 14, 14, 8, 11, 14, 10, 11, 14, 10, 8, 13, 13, 10, 8, 13, 8, 8, 8, 7, 9, 9, 5, 7, 6, 7, 10, 11, 5, 9, 7, 10, 
21, 18, 20, 16, 15, 13, 20, 18, 17, 14, 16, 15, 14, 16, 11, 10, 14, 10, 18, 14, 9, 6, 9, 11, 10, 10, 8, 7, 8, 10, 7, 14, 8, 8, 11, 6, 12, 9, 11, 11, 10, 8, 11, 9, 9, 11, 
22, 20, 18, 16, 19, 17, 15, 14, 16, 14, 17, 14, 14, 14, 13, 14, 10, 10, 12, 14, 11, 13, 12, 12, 11, 13, 11, 14, 11, 10, 11, 10, 10, 12, 12, 12, 9, 13, 10, 9, 15, 9, 12, 11, 11, 10, 
22, 20, 21, 18, 17, 19, 14, 19, 15, 21, 16, 15, 12, 17, 16, 19, 14, 14, 11, 13, 13, 10, 13, 9, 12, 8, 14, 12, 11, 6, 12, 5, 13, 10, 10, 10, 7, 9, 9, 11, 8, 12, 11, 7, 6, 11, 
19, 19, 20, 18, 17, 14, 17, 15, 13, 13, 14, 16, 14, 12, 14, 12, 14, 12, 11, 11, 11, 12, 14, 13, 14, 8, 9, 11, 10, 12, 10, 10, 10, 7, 8, 9, 10, 10, 7, 10, 8, 10, 8, 10, 8, 8, 
17, 13, 17, 13, 18, 15, 16, 13, 17, 18, 9, 13, 11, 11, 10, 12, 12, 12, 16, 14, 10, 10, 12, 10, 9, 8, 10, 11, 8, 8, 10, 11, 10, 4, 10, 9, 7, 10, 6, 7, 9, 10, 7, 7, 14, 9, 
22, 15, 14, 15, 15, 15, 18, 14, 7, 15, 8, 9, 17, 11, 14, 14, 15, 15, 13, 13, 12, 9, 10, 11, 12, 9, 8, 11, 7, 8, 9, 9, 7, 6, 7, 4, 3, 7, 9, 9, 8, 8, 8, 4, 6, 4, 
21, 19, 19, 11, 16, 16, 14, 11, 16, 11, 11, 12, 9, 11, 12, 13, 11, 14, 14, 12, 10, 13, 9, 12, 9, 8, 8, 9, 8, 8, 10, 9, 10, 11, 11, 8, 7, 7, 5, 4, 9, 5, 8, 12, 8, 9, 
22, 21, 17, 17, 17, 16, 16, 17, 15, 13, 12, 11, 14, 11, 14, 7, 13, 12, 15, 13, 16, 13, 15, 12, 11, 10, 11, 10, 11, 12, 7, 11, 7, 11, 9, 14, 8, 11, 8, 8, 8, 6, 10, 12, 14, 8, 
21, 20, 18, 14, 17, 13, 19, 16, 19, 14, 17, 17, 17, 12, 15, 14, 10, 12, 13, 11, 11, 17, 14, 12, 9, 10, 10, 13, 9, 11, 11, 10, 7, 10, 12, 6, 15, 13, 8, 10, 7, 11, 7, 10, 13, 10, 
21, 18, 18, 15, 17, 17, 14, 18, 15, 15, 12, 16, 14, 13, 13, 16, 12, 13, 8, 10, 11, 11, 15, 10, 11, 7, 10, 12, 10, 8, 8, 7, 7, 7, 8, 5, 8, 6, 7, 8, 9, 8, 9, 6, 8, 8, 
21, 17, 19, 17, 18, 19, 13, 11, 15, 16, 18, 12, 13, 14, 12, 13, 10, 15, 12, 11, 12, 12, 9, 11, 10, 12, 9, 7, 8, 9, 9, 7, 10, 6, 8, 9, 12, 7, 8, 14, 12, 15, 6, 8, 7, 6, 
21, 20, 19, 13, 16, 13, 15, 18, 12, 15, 12, 14, 13, 13, 16, 19, 11, 12, 16, 14, 13, 9, 10, 14, 10, 6, 12, 10, 6, 7, 9, 10, 9, 8, 4, 6, 4, 8, 8, 9, 7, 10, 10, 6, 6, 6, 
22, 17, 16, 15, 17, 15, 13, 10, 15, 15, 11, 13, 10, 9, 13, 10, 11, 10, 11, 13, 11, 9, 9, 10, 10, 9, 8, 10, 9, 8, 13, 11, 8, 6, 9, 6, 5, 8, 6, 10, 7, 8, 5, 7, 9, 6, 
22, 16, 17, 14, 11, 14, 12, 14, 14, 13, 12, 11, 10, 11, 8, 14, 6, 12, 11, 11, 10, 9, 12, 5, 8, 3, 12, 4, 5, 6, 6, 5, 7, 6, 10, 7, 6, 6, 5, 6, 8, 8, 7, 8, 8, 8, 
22, 17, 16, 17, 16, 16, 13, 10, 16, 11, 10, 12, 11, 8, 11, 11, 10, 12, 6, 11, 9, 12, 12, 9, 15, 11, 13, 9, 10, 9, 6, 10, 6, 9, 8, 15, 11, 6, 6, 9, 4, 9, 7, 10, 8, 9, 
21, 17, 17, 17, 17, 14, 19, 13, 11, 12, 12, 12, 11, 16, 10, 11, 11, 13, 11, 10, 14, 12, 9, 12, 6, 10, 11, 12, 10, 10, 8, 10, 9, 8, 11, 10, 8, 5, 5, 12, 6, 7, 5, 13, 11, 10, 
22, 15, 16, 10, 14, 13, 14, 12, 13, 11, 11, 9, 9, 15, 9, 9, 10, 13, 6, 13, 9, 10, 7, 11, 5, 6, 9, 7, 6, 7, 10, 6, 8, 6, 7, 11, 6, 5, 5, 6, 6, 8, 9, 6, 5, 6, 
22, 20, 18, 11, 15, 18, 17, 15, 13, 14, 11, 15, 12, 15, 11, 11, 11, 12, 13, 13, 15, 12, 10, 10, 9, 12, 10, 6, 11, 11, 9, 11, 9, 9, 9, 8, 7, 7, 11, 8, 10, 11, 8, 12, 7, 7, 
22, 20, 20, 17, 14, 14, 18, 17, 18, 12, 13, 9, 10, 12, 12, 13, 12, 12, 13, 9, 12, 13, 13, 16, 7, 10, 7, 15, 11, 8, 13, 6, 13, 11, 10, 14, 8, 8, 9, 6, 6, 10, 7, 9, 11, 7, 
21, 14, 14, 13, 15, 10, 13, 12, 10, 11, 11, 16, 10, 12, 14, 9, 8, 10, 11, 11, 6, 11, 4, 8, 6, 8, 5, 7, 10, 7, 8, 3, 10, 9, 10, 9, 8, 7, 12, 8, 7, 3, 8, 3, 10, 7, 
22, 20, 18, 21, 19, 15, 15, 17, 18, 16, 18, 16, 15, 10, 16, 18, 13, 13, 12, 14, 13, 9, 16, 14, 17, 10, 12, 13, 12, 9, 12, 10, 12, 11, 14, 7, 15, 12, 8, 12, 8, 7, 13, 10, 6, 9, 
22, 19, 19, 18, 17, 17, 18, 16, 18, 14, 16, 9, 16, 13, 14, 8, 12, 11, 13, 13, 14, 13, 11, 13, 10, 6, 11, 10, 12, 10, 12, 6, 9, 11, 8, 8, 15, 10, 13, 9, 13, 8, 8, 10, 9, 13, 
21, 19, 19, 14, 17, 16, 13, 15, 16, 13, 15, 15, 12, 13, 15, 18, 11, 14, 7, 14, 11, 12, 10, 13, 10, 12, 10, 11, 9, 9, 12, 7, 12, 9, 11, 10, 7, 5, 10, 4, 7, 8, 9, 7, 12, 8, 
21, 18, 16, 20, 19, 15, 16, 17, 19, 15, 16, 14, 13, 14, 15, 14, 17, 13, 16, 10, 13, 10, 11, 10, 13, 10, 14, 10, 15, 11, 12, 12, 13, 11, 13, 10, 13, 7, 13, 10, 10, 12, 13, 15, 9, 9, 
22, 21, 19, 18, 17, 18, 18, 15, 19, 14, 16, 14, 13, 13, 12, 11, 14, 12, 14, 12, 9, 11, 9, 13, 10, 13, 13, 7, 10, 6, 8, 10, 11, 10, 10, 8, 10, 10, 8, 9, 12, 8, 9, 8, 9, 10, 
20, 20, 20, 18, 19, 21, 16, 19, 15, 18, 12, 10, 11, 14, 9, 11, 11, 10, 10, 8, 13, 8, 13, 13, 11, 9, 14, 8, 12, 11, 10, 11, 10, 7, 11, 10, 12, 10, 12, 6, 10, 6, 7, 6, 9, 10, 
21, 19, 21, 19, 16, 16, 16, 14, 11, 13, 11, 13, 9, 13, 10, 13, 13, 11, 12, 13, 15, 12, 16, 8, 6, 12, 14, 9, 15, 10, 10, 6, 10, 8, 11, 10, 11, 12, 12, 9, 11, 9, 14, 13, 15, 9, 
20, 16, 19, 20, 17, 16, 19, 18, 16, 14, 14, 13, 14, 12, 6, 12, 12, 16, 13, 15, 9, 10, 16, 7, 10, 8, 15, 11, 14, 9, 10, 12, 8, 11, 14, 9, 11, 9, 12, 6, 9, 11, 10, 9, 12, 8, 
21, 16, 18, 15, 13, 10, 14, 11, 10, 12, 10, 12, 9, 14, 12, 9, 13, 7, 12, 6, 10, 7, 9, 7, 6, 6, 9, 8, 7, 6, 5, 7, 7, 6, 12, 8, 6, 8, 5, 4, 9, 8, 7, 4, 4, 16, 
17, 13, 17, 14, 15, 12, 11, 9, 16, 7, 10, 7, 11, 6, 14, 6, 14, 6, 9, 3, 9, 3, 10, 4, 6, 2, 5, 5, 5, 4, 10, 3, 7, 4, 5, 5, 4, 4, 3, 5, 6, 8, 6, 2, 3, 2, 
17, 12, 15, 12, 7, 11, 10, 11, 8, 10, 10, 5, 6, 5, 8, 5, 9, 7, 8, 7, 8, 4, 2, 9, 6, 7, 9, 4, 8, 2, 8, 5, 6, 4, 6, 4, 7, 5, 2, 4, 4, 5, 0, 4, 4, 7, 
9, 8, 12, 10, 11, 9, 11, 5, 11, 7, 11, 7, 7, 9, 7, 13, 10, 8, 6, 3, 3, 6, 9, 5, 4, 6, 3, 2, 4, 9, 6, 4, 6, 4, 4, 3, 3, 3, 3, 1, 4, 4, 0, 2, 3, 2, 
16, 13, 15, 17, 11, 9, 9, 11, 9, 9, 8, 11, 6, 9, 10, 4, 4, 11, 5, 6, 7, 7, 6, 2, 6, 6, 5, 3, 6, 10, 3, 8, 4, 4, 6, 7, 8, 5, 3, 8, 1, 3, 1, 6, 4, 3, 
16, 15, 14, 11, 7, 16, 11, 14, 7, 14, 12, 8, 10, 8, 13, 4, 7, 4, 8, 6, 9, 7, 6, 9, 8, 7, 5, 6, 9, 3, 9, 9, 9, 7, 12, 7, 11, 3, 10, 2, 7, 9, 10, 6, 11, 4, 
17, 18, 17, 15, 14, 20, 15, 19, 15, 13, 12, 17, 14, 11, 11, 11, 11, 14, 11, 12, 13, 12, 14, 12, 12, 14, 16, 14, 12, 12, 11, 12, 10, 10, 9, 11, 14, 8, 15, 9, 11, 9, 8, 13, 9, 9, 
22, 18, 21, 19, 21, 16, 18, 17, 16, 15, 16, 16, 17, 18, 13, 18, 13, 12, 15, 12, 7, 13, 12, 8, 15, 13, 14, 10, 11, 13, 14, 11, 11, 7, 11, 10, 8, 8, 9, 14, 8, 11, 9, 12, 6, 9, 
22, 20, 21, 18, 20, 18, 19, 18, 15, 19, 18, 13, 14, 11, 10, 12, 15, 14, 14, 12, 11, 14, 9, 8, 11, 8, 11, 8, 6, 9, 12, 11, 7, 13, 13, 12, 12, 8, 10, 8, 10, 8, 6, 14, 11, 9, 
22, 19, 19, 18, 17, 19, 17, 18, 16, 21, 17, 15, 14, 14, 13, 12, 11, 14, 16, 11, 11, 10, 9, 12, 12, 14, 12, 14, 13, 11, 12, 10, 14, 10, 12, 11, 9, 10, 14, 11, 9, 12, 11, 10, 9, 10, 
21, 18, 18, 20, 17, 19, 17, 18, 15, 16, 15, 15, 17, 9, 12, 13, 12, 15, 12, 14, 13, 14, 13, 12, 10, 11, 12, 16, 9, 11, 14, 11, 12, 9, 11, 12, 9, 7, 6, 7, 8, 10, 16, 12, 9, 14, 
22, 19, 21, 15, 17, 19, 17, 15, 19, 17, 15, 18, 12, 12, 11, 11, 13, 12, 10, 11, 9, 11, 12, 13, 10, 11, 11, 7, 15, 9, 15, 6, 10, 8, 12, 15, 10, 7, 13, 10, 6, 9, 7, 6, 6, 6, 
22, 13, 19, 8, 17, 10, 11, 10, 9, 13, 10, 10, 10, 10, 6, 4, 5, 9, 7, 9, 9, 11, 6, 9, 7, 6, 4, 4, 4, 3, 10, 6, 5, 7, 9, 7, 7, 4, 9, 4, 5, 6, 4, 4, 9, 9, 
22, 17, 20, 19, 17, 17, 19, 18, 19, 13, 16, 13, 13, 13, 12, 11, 13, 18, 13, 10, 11, 13, 12, 15, 14, 12, 15, 10, 16, 11, 12, 18, 12, 14, 11, 10, 10, 9, 13, 13, 10, 12, 11, 11, 8, 10, 
21, 18, 18, 21, 17, 14, 13, 14, 19, 16, 12, 16, 12, 14, 11, 20, 16, 17, 14, 11, 14, 8, 14, 13, 14, 8, 15, 15, 13, 10, 12, 11, 11, 10, 12, 5, 12, 10, 7, 6, 8, 13, 11, 12, 14, 10, 
19, 19, 20, 17, 18, 18, 17, 14, 13, 14, 16, 16, 16, 13, 14, 14, 10, 11, 9, 11, 14, 9, 10, 12, 9, 12, 9, 12, 10, 10, 7, 9, 12, 6, 11, 12, 7, 11, 6, 6, 10, 12, 8, 8, 8, 9, 
18, 16, 13, 13, 15, 13, 11, 15, 12, 10, 11, 12, 9, 11, 6, 8, 9, 8, 9, 11, 7, 9, 5, 8, 8, 7, 9, 8, 8, 7, 9, 7, 5, 6, 9, 9, 6, 7, 8, 6, 6, 9, 10, 7, 7, 9, 
21, 16, 17, 17, 15, 14, 14, 13, 14, 17, 17, 12, 13, 11, 12, 14, 14, 13, 14, 10, 11, 14, 14, 12, 13, 10, 14, 11, 12, 11, 9, 11, 13, 9, 8, 8, 11, 9, 13, 6, 12, 6, 9, 9, 12, 10, 
18, 19, 17, 12, 14, 15, 14, 11, 17, 17, 19, 15, 10, 9, 15, 12, 11, 11, 15, 20, 10, 9, 10, 9, 10, 7, 7, 6, 8, 4, 8, 8, 9, 11, 9, 8, 10, 11, 8, 2, 6, 11, 7, 9, 8, 5, 
15, 14, 14, 14, 13, 10, 11, 15, 13, 12, 15, 14, 14, 15, 11, 13, 12, 12, 12, 9, 9, 12, 11, 11, 8, 6, 9, 4, 9, 3, 10, 4, 7, 4, 11, 2, 6, 5, 3, 6, 7, 4, 10, 6, 11, 5, 
21, 18, 17, 17, 16, 18, 15, 13, 18, 18, 13, 13, 14, 15, 13, 15, 15, 13, 13, 12, 14, 12, 8, 12, 14, 15, 14, 12, 9, 13, 6, 11, 9, 11, 8, 12, 13, 4, 10, 7, 12, 10, 7, 5, 9, 8, 
20, 19, 17, 17, 16, 11, 12, 12, 12, 15, 12, 13, 11, 12, 14, 13, 15, 13, 10, 12, 13, 12, 11, 15, 9, 8, 7, 5, 12, 7, 5, 6, 10, 13, 7, 9, 12, 10, 7, 11, 5, 11, 11, 11, 7, 6, 
16, 11, 17, 10, 17, 9, 17, 14, 14, 10, 14, 11, 11, 5, 10, 5, 5, 7, 9, 6, 9, 5, 10, 8, 9, 5, 8, 4, 9, 7, 5, 7, 5, 7, 8, 4, 12, 8, 9, 6, 6, 3, 4, 6, 6, 3, 
13, 3, 11, 2, 15, 5, 11, 5, 13, 8, 10, 5, 7, 4, 2, 3, 9, 3, 9, 2, 6, 3, 4, 3, 7, 5, 5, 1, 7, 3, 5, 1, 9, 3, 10, 2, 6, 2, 7, 3, 7, 3, 6, 3, 4, 1, 
18, 16, 19, 11, 19, 10, 14, 14, 18, 11, 11, 12, 17, 9, 12, 11, 8, 9, 13, 12, 11, 9, 6, 10, 10, 7, 12, 9, 8, 7, 9, 8, 10, 4, 8, 6, 9, 6, 10, 7, 9, 9, 11, 10, 11, 7, 
20, 18, 19, 14, 18, 10, 12, 11, 13, 11, 17, 7, 10, 10, 8, 13, 9, 12, 9, 7, 7, 6, 6, 5, 6, 7, 6, 3, 6, 4, 7, 7, 10, 12, 8, 8, 6, 9, 6, 8, 7, 11, 8, 3, 4, 3, 
19, 19, 21, 13, 21, 11, 18, 9, 10, 15, 15, 18, 12, 13, 12, 9, 13, 9, 11, 10, 8, 12, 7, 9, 9, 8, 9, 7, 8, 7, 10, 12, 13, 4, 9, 11, 10, 6, 13, 9, 11, 12, 12, 9, 11, 6, 
22, 15, 15, 14, 16, 17, 13, 16, 19, 15, 14, 13, 11, 13, 13, 12, 12, 12, 11, 10, 7, 9, 10, 10, 9, 8, 7, 11, 11, 9, 9, 11, 8, 7, 8, 10, 11, 11, 9, 10, 13, 8, 9, 5, 5, 7, 
21, 14, 21, 8, 18, 12, 14, 9, 16, 10, 16, 15, 11, 4, 12, 9, 7, 10, 9, 10, 4, 8, 8, 7, 3, 9, 10, 6, 8, 9, 5, 6, 13, 4, 13, 13, 15, 8, 14, 12, 11, 8, 10, 8, 8, 2, 
19, 16, 17, 12, 17, 13, 14, 11, 11, 14, 12, 11, 11, 11, 13, 6, 7, 12, 12, 8, 17, 11, 11, 12, 14, 12, 14, 10, 11, 10, 15, 12, 9, 7, 13, 5, 15, 11, 7, 10, 9, 9, 12, 8, 13, 5, 
19, 17, 15, 17, 16, 14, 19, 14, 12, 8, 8, 12, 11, 12, 14, 13, 14, 10, 9, 11, 11, 12, 13, 6, 11, 10, 12, 5, 12, 8, 9, 11, 8, 8, 4, 7, 11, 5, 10, 10, 6, 6, 9, 9, 7, 4, 
19, 17, 19, 15, 13, 11, 14, 14, 14, 13, 13, 13, 10, 12, 9, 9, 8, 7, 16, 12, 13, 14, 9, 10, 15, 7, 10, 14, 8, 6, 10, 8, 10, 7, 10, 5, 11, 12, 9, 9, 10, 8, 5, 5, 8, 8, 
21, 16, 19, 13, 19, 14, 12, 15, 16, 13, 12, 11, 10, 7, 11, 13, 11, 10, 11, 7, 10, 12, 10, 10, 11, 12, 12, 13, 13, 11, 14, 7, 10, 9, 16, 13, 12, 11, 11, 7, 11, 10, 10, 9, 13, 8, 
21, 19, 18, 16, 15, 14, 16, 15, 16, 15, 17, 10, 14, 14, 12, 12, 15, 13, 11, 12, 13, 10, 14, 11, 14, 12, 14, 12, 11, 6, 8, 12, 11, 9, 14, 11, 10, 7, 11, 5, 6, 6, 10, 4, 12, 7, 
22, 19, 20, 17, 18, 15, 16, 15, 16, 14, 16, 14, 15, 16, 17, 15, 9, 12, 10, 15, 12, 13, 16, 13, 12, 12, 10, 12, 9, 13, 9, 16, 9, 14, 10, 13, 8, 7, 8, 9, 12, 9, 10, 3, 11, 11, 
22, 19, 16, 15, 15, 16, 15, 17, 14, 15, 11, 14, 9, 12, 15, 16, 17, 12, 14, 13, 12, 11, 10, 12, 15, 14, 14, 8, 11, 11, 11, 8, 9, 9, 8, 7, 10, 8, 9, 7, 10, 10, 10, 15, 11, 6, 
21, 18, 21, 17, 17, 16, 17, 13, 14, 15, 13, 11, 13, 11, 11, 10, 16, 10, 13, 12, 12, 10, 13, 14, 8, 10, 13, 13, 16, 13, 10, 10, 9, 10, 11, 10, 7, 10, 8, 12, 10, 12, 11, 11, 11, 9, 
16, 17, 14, 16, 14, 14, 17, 11, 15, 14, 12, 12, 16, 15, 13, 13, 12, 13, 12, 16, 11, 8, 16, 12, 13, 10, 10, 11, 10, 7, 7, 12, 11, 8, 10, 6, 10, 7, 8, 9, 6, 7, 5, 11, 8, 4, 
17, 14, 21, 14, 15, 13, 12, 13, 14, 12, 10, 15, 16, 13, 10, 14, 12, 10, 11, 11, 8, 11, 8, 9, 9, 7, 11, 4, 5, 4, 8, 8, 5, 9, 5, 7, 11, 7, 7, 7, 8, 12, 7, 10, 9, 5, 
20, 19, 19, 17, 14, 16, 15, 14, 19, 15, 17, 16, 14, 12, 10, 15, 10, 16, 10, 9, 10, 15, 12, 8, 12, 8, 13, 10, 17, 8, 12, 8, 13, 9, 10, 9, 8, 9, 12, 9, 9, 8, 9, 11, 8, 6, 
21, 18, 16, 17, 19, 13, 15, 16, 15, 13, 14, 14, 12, 15, 9, 11, 11, 7, 12, 14, 16, 13, 17, 8, 10, 11, 12, 8, 11, 12, 10, 13, 8, 11, 10, 10, 10, 8, 10, 10, 12, 6, 9, 4, 9, 7, 
20, 14, 14, 16, 14, 17, 15, 16, 16, 18, 11, 11, 16, 13, 9, 19, 13, 12, 8, 14, 13, 14, 12, 7, 9, 11, 11, 12, 13, 9, 11, 7, 13, 8, 9, 10, 10, 11, 8, 12, 9, 10, 10, 4, 7, 7, 
17, 20, 19, 17, 19, 15, 13, 13, 5, 13, 10, 14, 10, 8, 11, 17, 12, 12, 12, 10, 10, 14, 5, 11, 10, 13, 9, 11, 10, 9, 11, 15, 9, 12, 8, 11, 10, 11, 7, 6, 9, 9, 7, 14, 9, 9, 
21, 21, 20, 17, 18, 15, 16, 15, 14, 15, 17, 13, 15, 14, 12, 14, 10, 14, 10, 11, 9, 13, 14, 12, 15, 8, 11, 8, 12, 15, 12, 14, 10, 10, 12, 9, 12, 8, 8, 8, 9, 10, 8, 8, 12, 11, 
18, 15, 16, 17, 9, 14, 14, 13, 12, 14, 14, 10, 12, 8, 9, 11, 16, 14, 11, 13, 10, 9, 10, 7, 11, 5, 8, 12, 6, 9, 9, 7, 9, 9, 11, 10, 9, 7, 10, 11, 11, 14, 12, 12, 10, 8, 
19, 18, 19, 16, 12, 15, 15, 14, 16, 14, 15, 16, 10, 11, 14, 11, 13, 11, 13, 12, 12, 8, 7, 11, 12, 11, 10, 12, 9, 13, 11, 10, 11, 8, 12, 7, 12, 7, 10, 7, 8, 6, 7, 9, 11, 6, 
20, 21, 18, 14, 18, 19, 15, 17, 20, 16, 16, 14, 13, 11, 15, 17, 15, 13, 13, 15, 10, 15, 11, 17, 15, 14, 8, 12, 10, 14, 10, 10, 13, 13, 13, 11, 11, 9, 12, 9, 11, 14, 5, 11, 10, 10, 
22, 20, 22, 17, 18, 19, 16, 14, 16, 20, 13, 14, 14, 10, 11, 14, 13, 12, 9, 16, 12, 13, 14, 13, 12, 9, 11, 14, 8, 9, 14, 11, 10, 6, 15, 12, 14, 11, 12, 10, 10, 14, 17, 15, 12, 6, 
22, 20, 19, 19, 19, 14, 16, 18, 19, 16, 12, 14, 11, 14, 13, 15, 16, 16, 9, 14, 13, 9, 12, 8, 13, 10, 12, 10, 12, 10, 10, 9, 9, 12, 9, 8, 14, 5, 11, 11, 10, 13, 8, 11, 8, 8, 
17, 17, 19, 16, 17, 15, 17, 14, 17, 19, 16, 14, 10, 17, 12, 14, 15, 12, 14, 12, 13, 11, 15, 13, 9, 11, 9, 10, 11, 7, 9, 9, 10, 11, 10, 11, 10, 11, 11, 12, 9, 13, 9, 10, 10, 13, 
18, 18, 20, 18, 15, 18, 15, 18, 13, 12, 11, 13, 15, 15, 16, 12, 14, 14, 16, 15, 15, 13, 14, 11, 12, 7, 14, 7, 14, 12, 8, 13, 9, 15, 8, 8, 10, 12, 10, 12, 3, 10, 11, 9, 7, 10, 
20, 19, 18, 18, 18, 18, 14, 15, 14, 13, 13, 15, 11, 12, 9, 11, 11, 10, 12, 12, 10, 6, 6, 8, 15, 14, 5, 12, 12, 12, 14, 9, 12, 12, 8, 9, 13, 8, 11, 9, 9, 6, 15, 9, 8, 12, 
21, 19, 17, 17, 20, 14, 16, 18, 16, 13, 16, 18, 17, 15, 16, 15, 14, 16, 14, 14, 15, 12, 13, 14, 11, 11, 9, 12, 12, 9, 14, 12, 9, 11, 13, 10, 12, 10, 10, 9, 10, 12, 13, 11, 9, 9, 
19, 21, 19, 16, 18, 14, 14, 17, 16, 17, 16, 13, 14, 15, 15, 12, 12, 10, 10, 10, 8, 10, 13, 14, 14, 7, 15, 11, 12, 13, 10, 10, 13, 8, 10, 10, 11, 13, 10, 12, 7, 8, 8, 9, 6, 7, 
20, 16, 18, 20, 18, 14, 17, 17, 13, 13, 12, 15, 14, 12, 13, 13, 11, 13, 12, 10, 11, 13, 8, 10, 10, 11, 11, 8, 9, 11, 13, 14, 10, 10, 8, 12, 7, 9, 7, 10, 5, 12, 10, 8, 9, 10, 
20, 18, 17, 17, 16, 13, 16, 16, 15, 20, 19, 14, 14, 13, 9, 15, 9, 14, 10, 14, 9, 11, 11, 13, 13, 9, 12, 8, 9, 7, 7, 9, 12, 9, 14, 9, 12, 7, 10, 8, 11, 14, 15, 13, 12, 8, 
17, 18, 18, 18, 13, 13, 11, 12, 10, 13, 15, 10, 9, 13, 11, 14, 13, 11, 12, 13, 10, 9, 7, 9, 12, 6, 10, 11, 12, 7, 10, 10, 12, 13, 9, 12, 14, 9, 10, 10, 8, 5, 9, 5, 10, 7, 
21, 18, 16, 15, 18, 19, 17, 17, 15, 15, 16, 16, 13, 14, 13, 17, 9, 14, 13, 10, 13, 12, 11, 15, 13, 13, 11, 9, 7, 10, 10, 11, 7, 12, 10, 11, 7, 11, 10, 13, 7, 9, 10, 9, 10, 12, 
21, 19, 19, 15, 16, 15, 14, 16, 12, 13, 12, 16, 11, 11, 13, 11, 9, 13, 9, 13, 6, 14, 12, 15, 12, 13, 15, 6, 14, 12, 9, 10, 13, 8, 14, 9, 11, 11, 13, 10, 10, 8, 9, 8, 10, 8, 
19, 19, 19, 16, 15, 12, 11, 13, 13, 14, 12, 15, 11, 10, 10, 9, 11, 15, 11, 12, 14, 12, 11, 15, 10, 10, 7, 8, 11, 15, 6, 8, 6, 14, 7, 11, 8, 5, 7, 8, 4, 10, 7, 8, 8, 6, 
19, 13, 16, 13, 13, 13, 12, 14, 17, 15, 14, 15, 10, 13, 11, 13, 14, 11, 11, 11, 10, 11, 8, 11, 9, 12, 7, 15, 6, 8, 7, 8, 11, 10, 11, 10, 8, 11, 10, 8, 6, 9, 8, 7, 9, 9, 
17, 14, 17, 13, 14, 11, 11, 13, 13, 9, 9, 8, 13, 8, 10, 11, 10, 9, 9, 11, 11, 10, 16, 7, 8, 9, 9, 3, 5, 6, 8, 5, 11, 5, 8, 6, 6, 3, 4, 7, 3, 7, 5, 6, 3, 4, 
20, 17, 18, 17, 13, 17, 15, 17, 17, 13, 13, 16, 14, 14, 12, 14, 11, 19, 13, 14, 10, 9, 9, 11, 7, 10, 10, 11, 8, 10, 13, 15, 8, 9, 6, 11, 8, 10, 8, 14, 12, 10, 10, 12, 6, 10, 
20, 19, 16, 14, 15, 17, 17, 16, 15, 17, 11, 14, 15, 11, 9, 13, 11, 14, 16, 12, 10, 12, 11, 12, 8, 9, 12, 13, 11, 7, 13, 12, 12, 11, 9, 11, 8, 8, 9, 12, 7, 12, 7, 12, 7, 10, 
18, 16, 15, 17, 14, 10, 15, 14, 16, 10, 16, 16, 13, 16, 13, 15, 14, 13, 13, 11, 7, 12, 14, 10, 11, 13, 12, 9, 12, 10, 10, 9, 7, 15, 12, 11, 8, 4, 8, 10, 8, 6, 7, 7, 5, 9, 
18, 18, 17, 13, 17, 16, 14, 15, 15, 18, 12, 13, 12, 15, 11, 10, 11, 14, 12, 11, 14, 8, 10, 10, 12, 9, 10, 8, 12, 11, 11, 9, 10, 13, 9, 11, 12, 7, 9, 11, 7, 4, 5, 11, 9, 10, 
14, 15, 17, 13, 17, 15, 13, 11, 13, 12, 13, 10, 11, 14, 13, 10, 11, 7, 7, 11, 10, 11, 8, 11, 8, 12, 10, 10, 6, 9, 12, 11, 8, 6, 10, 6, 8, 9, 7, 5, 4, 5, 9, 5, 7, 5, 
19, 10, 11, 10, 10, 10, 10, 10, 10, 9, 11, 5, 9, 11, 6, 8, 9, 6, 7, 8, 10, 7, 5, 9, 7, 7, 8, 4, 8, 12, 8, 6, 8, 9, 7, 7, 4, 8, 9, 10, 8, 6, 6, 6, 4, 4, 
19, 17, 15, 15, 16, 15, 12, 17, 14, 16, 11, 13, 11, 11, 14, 12, 15, 12, 10, 10, 7, 6, 10, 14, 9, 11, 12, 12, 9, 8, 6, 9, 10, 9, 13, 8, 10, 11, 12, 12, 5, 7, 13, 8, 11, 9, 
21, 21, 19, 19, 17, 16, 17, 16, 16, 18, 14, 14, 13, 12, 14, 16, 10, 14, 13, 14, 12, 14, 15, 13, 12, 12, 11, 13, 8, 8, 15, 12, 9, 11, 7, 11, 9, 13, 8, 13, 8, 8, 10, 7, 11, 10, 
19, 18, 18, 15, 20, 14, 14, 16, 17, 17, 15, 12, 15, 13, 12, 13, 10, 12, 12, 14, 11, 10, 11, 9, 11, 12, 14, 9, 16, 11, 12, 13, 11, 10, 5, 9, 11, 11, 7, 8, 13, 8, 13, 9, 6, 12, 
20, 20, 19, 19, 20, 15, 17, 15, 17, 16, 16, 18, 13, 12, 18, 16, 16, 17, 13, 13, 12, 11, 12, 11, 14, 14, 12, 13, 12, 10, 12, 14, 10, 9, 12, 8, 10, 10, 13, 11, 6, 9, 7, 9, 7, 9, 
17, 16, 17, 13, 15, 14, 10, 10, 11, 11, 13, 12, 12, 11, 10, 7, 7, 12, 7, 11, 12, 12, 9, 7, 8, 6, 10, 6, 7, 12, 9, 6, 5, 7, 4, 9, 5, 7, 7, 6, 8, 7, 9, 4, 8, 5, 
21, 18, 19, 17, 15, 17, 16, 11, 14, 19, 15, 14, 13, 14, 12, 14, 14, 11, 13, 13, 11, 9, 11, 8, 14, 13, 9, 8, 11, 11, 9, 9, 12, 11, 10, 11, 10, 14, 11, 11, 7, 12, 6, 14, 11, 7, 
19, 15, 20, 16, 16, 15, 13, 12, 10, 17, 9, 15, 14, 10, 8, 12, 11, 12, 8, 10, 9, 12, 8, 11, 10, 15, 9, 11, 15, 9, 12, 13, 7, 15, 8, 10, 11, 6, 15, 9, 5, 11, 7, 5, 7, 10, 
14, 13, 14, 8, 16, 8, 14, 7, 12, 9, 9, 11, 7, 8, 10, 14, 8, 8, 7, 11, 9, 7, 5, 7, 11, 8, 13, 6, 10, 10, 7, 14, 8, 8, 9, 8, 8, 4, 10, 12, 8, 10, 10, 5, 5, 7, 
18, 19, 17, 14, 17, 16, 17, 11, 14, 13, 16, 13, 12, 12, 15, 14, 13, 17, 14, 8, 12, 14, 11, 12, 14, 7, 12, 9, 13, 12, 7, 14, 5, 12, 10, 13, 10, 9, 9, 12, 10, 8, 13, 7, 6, 9, 
19, 14, 19, 17, 15, 16, 17, 15, 15, 13, 16, 13, 14, 12, 17, 6, 12, 11, 9, 9, 10, 12, 12, 11, 13, 9, 9, 9, 6, 8, 11, 5, 8, 11, 12, 7, 7, 11, 10, 12, 11, 9, 13, 10, 7, 12, 
18, 18, 18, 16, 14, 18, 15, 13, 13, 11, 12, 9, 9, 14, 13, 14, 12, 15, 11, 6, 11, 10, 13, 12, 12, 11, 12, 13, 10, 9, 9, 13, 10, 12, 13, 9, 11, 11, 14, 10, 9, 6, 10, 6, 9, 12, 
14, 12, 13, 11, 13, 12, 13, 11, 13, 10, 10, 10, 8, 10, 11, 10, 7, 8, 13, 9, 7, 9, 4, 5, 7, 7, 7, 8, 7, 10, 9, 7, 6, 7, 9, 3, 8, 4, 6, 5, 7, 5, 5, 2, 8, 4, 
22, 19, 18, 15, 16, 15, 15, 17, 15, 16, 14, 14, 14, 11, 13, 15, 14, 16, 11, 15, 12, 9, 13, 15, 14, 14, 12, 13, 13, 9, 11, 11, 8, 10, 10, 14, 10, 11, 7, 12, 11, 11, 9, 10, 8, 5, 
18, 13, 15, 17, 16, 17, 14, 12, 15, 13, 11, 12, 7, 10, 13, 13, 13, 9, 11, 8, 12, 9, 12, 8, 6, 9, 8, 6, 7, 11, 12, 5, 9, 9, 12, 8, 12, 13, 9, 12, 7, 9, 11, 5, 7, 9, 
14, 14, 18, 13, 15, 10, 13, 11, 14, 12, 11, 11, 6, 7, 10, 8, 13, 10, 12, 9, 9, 9, 10, 8, 8, 8, 8, 10, 6, 11, 8, 8, 8, 8, 6, 5, 8, 14, 9, 8, 4, 10, 5, 8, 7, 5, 
19, 16, 18, 13, 15, 12, 14, 13, 14, 9, 14, 11, 8, 16, 14, 11, 17, 14, 12, 16, 14, 9, 10, 13, 10, 7, 10, 8, 9, 9, 11, 10, 6, 7, 9, 4, 13, 8, 9, 7, 6, 10, 10, 7, 4, 5, 
18, 17, 18, 15, 18, 11, 14, 17, 17, 13, 12, 16, 16, 11, 15, 11, 15, 12, 13, 14, 10, 10, 5, 6, 9, 9, 4, 9, 8, 9, 7, 10, 9, 9, 13, 9, 13, 8, 11, 8, 5, 6, 12, 11, 13, 10, 
19, 17, 17, 13, 17, 19, 13, 17, 16, 14, 12, 16, 14, 11, 13, 13, 15, 12, 12, 9, 8, 5, 12, 11, 10, 8, 9, 7, 6, 8, 7, 11, 8, 8, 8, 12, 8, 7, 10, 10, 9, 9, 7, 2, 5, 9, 
20, 18, 20, 16, 16, 13, 16, 14, 16, 13, 12, 9, 12, 10, 15, 11, 12, 11, 16, 14, 11, 9, 10, 11, 9, 10, 8, 12, 11, 10, 13, 10, 12, 16, 8, 9, 9, 14, 10, 12, 10, 10, 8, 6, 6, 10, 
18, 15, 17, 11, 11, 16, 15, 13, 16, 16, 10, 17, 10, 13, 10, 13, 14, 13, 13, 14, 9, 9, 10, 12, 7, 9, 13, 10, 11, 12, 11, 6, 9, 10, 8, 10, 8, 10, 12, 10, 13, 8, 9, 6, 8, 9, 
19, 16, 19, 16, 16, 15, 13, 12, 17, 16, 10, 16, 11, 11, 11, 13, 12, 8, 7, 11, 8, 15, 8, 12, 5, 7, 10, 9, 10, 10, 9, 9, 10, 10, 9, 11, 7, 7, 9, 8, 7, 9, 12, 6, 9, 4, 
17, 16, 18, 17, 16, 14, 13, 17, 14, 11, 9, 13, 10, 10, 12, 13, 13, 7, 12, 12, 8, 9, 10, 9, 11, 8, 6, 8, 11, 13, 10, 10, 8, 5, 10, 8, 12, 10, 9, 11, 7, 12, 7, 15, 6, 7, 
22, 18, 21, 18, 17, 19, 19, 16, 15, 19, 17, 16, 16, 16, 12, 14, 15, 14, 15, 14, 12, 12, 16, 15, 13, 12, 15, 13, 12, 9, 10, 8, 10, 14, 7, 12, 10, 14, 10, 10, 15, 8, 12, 9, 10, 12, 
16, 11, 16, 15, 15, 9, 15, 11, 15, 13, 15, 10, 13, 11, 11, 9, 10, 9, 7, 11, 13, 11, 11, 8, 11, 13, 7, 13, 11, 11, 11, 11, 9, 13, 8, 7, 10, 10, 4, 9, 7, 4, 8, 9, 5, 6, 
19, 17, 20, 16, 15, 13, 15, 13, 17, 18, 19, 10, 15, 13, 11, 16, 12, 12, 12, 9, 9, 13, 11, 11, 12, 12, 11, 14, 14, 8, 9, 10, 8, 8, 9, 7, 8, 9, 7, 11, 8, 9, 5, 10, 17, 8, 
14, 14, 15, 12, 19, 10, 11, 13, 14, 12, 14, 13, 13, 11, 12, 11, 6, 9, 10, 7, 8, 7, 10, 11, 8, 12, 10, 11, 12, 9, 12, 8, 11, 11, 6, 12, 5, 8, 7, 6, 11, 7, 8, 10, 9, 12, 
18, 16, 16, 18, 14, 17, 18, 14, 14, 17, 10, 14, 11, 10, 10, 11, 13, 11, 12, 5, 12, 8, 12, 12, 12, 15, 11, 11, 12, 7, 6, 11, 12, 12, 9, 7, 4, 10, 5, 7, 5, 9, 8, 14, 7, 10, 
15, 14, 13, 15, 15, 13, 10, 10, 11, 13, 11, 12, 12, 13, 10, 12, 9, 7, 9, 9, 12, 10, 9, 12, 12, 9, 8, 9, 10, 7, 8, 6, 13, 9, 7, 7, 6, 10, 8, 4, 12, 5, 7, 9, 3, 12, 
20, 17, 17, 19, 13, 16, 15, 11, 16, 16, 13, 13, 15, 12, 12, 11, 13, 14, 12, 13, 8, 13, 14, 13, 10, 12, 14, 10, 13, 13, 8, 11, 8, 8, 10, 9, 14, 9, 8, 11, 11, 7, 10, 8, 9, 6, 
20, 18, 17, 14, 17, 15, 14, 16, 13, 13, 12, 17, 16, 18, 13, 13, 15, 11, 12, 10, 9, 11, 11, 17, 13, 12, 14, 12, 10, 9, 8, 13, 15, 12, 7, 5, 9, 11, 14, 12, 9, 11, 9, 12, 10, 10, 
14, 14, 16, 10, 14, 12, 16, 9, 14, 12, 14, 8, 9, 9, 9, 7, 11, 11, 9, 11, 7, 6, 10, 7, 9, 8, 11, 9, 13, 6, 11, 8, 10, 9, 10, 6, 10, 7, 9, 7, 9, 12, 10, 8, 9, 10, 
19, 18, 18, 14, 15, 16, 15, 13, 13, 11, 12, 11, 11, 9, 15, 6, 12, 12, 9, 8, 7, 13, 10, 10, 11, 7, 7, 11, 10, 11, 13, 11, 9, 7, 9, 13, 9, 7, 8, 5, 10, 9, 8, 9, 10, 5, 
19, 17, 19, 15, 12, 17, 19, 11, 15, 11, 11, 10, 13, 16, 16, 14, 13, 12, 9, 11, 12, 8, 13, 12, 5, 10, 12, 5, 10, 11, 7, 11, 10, 7, 12, 10, 11, 9, 8, 9, 10, 11, 8, 10, 7, 6, 
15, 17, 17, 16, 16, 14, 16, 10, 11, 10, 11, 8, 11, 11, 11, 11, 15, 9, 11, 10, 11, 10, 14, 9, 10, 9, 11, 8, 11, 9, 9, 11, 12, 14, 15, 7, 8, 9, 8, 8, 7, 5, 7, 7, 9, 10, 
21, 16, 17, 14, 15, 15, 15, 15, 14, 16, 17, 16, 14, 13, 8, 16, 13, 15, 12, 12, 10, 13, 11, 13, 10, 10, 13, 9, 10, 9, 9, 12, 10, 10, 11, 13, 13, 12, 14, 11, 8, 10, 13, 8, 9, 7, 
14, 10, 17, 11, 10, 8, 12, 9, 8, 10, 14, 13, 14, 12, 14, 12, 8, 8, 13, 10, 11, 9, 12, 9, 11, 9, 11, 10, 13, 7, 10, 9, 11, 10, 7, 12, 7, 9, 7, 11, 7, 9, 7, 14, 7, 6, 
21, 22, 22, 17, 18, 16, 16, 12, 14, 16, 13, 17, 13, 12, 13, 15, 15, 14, 15, 17, 11, 12, 14, 15, 14, 7, 11, 11, 9, 8, 10, 7, 11, 8, 10, 9, 9, 6, 13, 9, 9, 7, 8, 8, 8, 5, 
22, 20, 19, 18, 16, 15, 18, 13, 18, 13, 11, 12, 13, 15, 13, 14, 13, 14, 12, 10, 15, 11, 13, 9, 12, 15, 11, 12, 12, 13, 14, 11, 8, 10, 13, 15, 13, 14, 9, 10, 17, 8, 10, 10, 6, 9, 
21, 18, 19, 17, 16, 13, 15, 14, 11, 11, 15, 12, 10, 13, 13, 11, 13, 11, 14, 17, 13, 13, 10, 14, 15, 9, 15, 10, 15, 7, 10, 9, 8, 9, 13, 7, 16, 7, 10, 10, 7, 9, 13, 8, 11, 7, 
Heartbeat CPU 0 instructions: 20000001 cycles: 9604377 heartbeat IPC: 2.09295 cumulative IPC: 2.08238 (Simulation time: 0 hr 0 min 27 sec) 

Warmup complete CPU 0 instructions: 20000001 cycles: 9604377 (Simulation time: 0 hr 0 min 27 sec) 

17, 15, 19, 15, 16, 15, 13, 12, 12, 11, 11, 8, 11, 13, 11, 8, 11, 9, 12, 11, 10, 6, 9, 11, 3, 2, 11, 7, 5, 8, 8, 4, 7, 7, 10, 7, 9, 12, 8, 6, 5, 6, 7, 13, 9, 7, 
17, 16, 16, 16, 18, 14, 14, 14, 13, 10, 11, 14, 11, 6, 11, 9, 13, 8, 11, 9, 8, 11, 12, 9, 15, 10, 10, 8, 7, 7, 10, 8, 6, 8, 9, 7, 10, 6, 8, 10, 9, 16, 6, 11, 8, 11, 
19, 15, 12, 15, 11, 12, 15, 7, 13, 13, 15, 13, 11, 14, 9, 11, 7, 10, 9, 13, 14, 13, 9, 9, 9, 12, 8, 12, 13, 9, 9, 2, 7, 2, 10, 3, 8, 7, 10, 8, 11, 7, 6, 7, 11, 4, 
12, 12, 18, 14, 15, 13, 16, 10, 15, 8, 15, 10, 9, 10, 12, 9, 7, 14, 12, 9, 13, 11, 10, 11, 13, 11, 10, 9, 9, 10, 8, 5, 10, 7, 8, 10, 12, 9, 6, 10, 7, 7, 12, 8, 10, 8, 
Heartbeat CPU 0 instructions: 30000001 cycles: 20555444 heartbeat IPC: 0.913153 cumulative IPC: 0.913153 (Simulation time: 0 hr 0 min 37 sec) 
13, 14, 14, 10, 15, 9, 13, 10, 19, 8, 14, 10, 11, 6, 14, 7, 14, 10, 14, 7, 12, 10, 11, 8, 11, 8, 11, 7, 10, 8, 10, 7, 10, 10, 8, 9, 7, 6, 7, 9, 6, 6, 10, 10, 6, 8, 
17, 17, 16, 16, 16, 11, 16, 16, 13, 14, 16, 12, 13, 13, 13, 15, 12, 13, 11, 6, 12, 8, 13, 7, 8, 12, 11, 8, 11, 8, 8, 7, 12, 7, 11, 9, 14, 9, 11, 9, 7, 8, 7, 7, 11, 11, 
Heartbeat CPU 0 instructions: 40000001 cycles: 32641728 heartbeat IPC: 0.827384 cumulative IPC: 0.868155 (Simulation time: 0 hr 0 min 47 sec) 
18, 18, 15, 14, 19, 11, 15, 11, 10, 13, 11, 14, 10, 11, 10, 9, 14, 10, 11, 15, 11, 10, 8, 15, 9, 9, 7, 14, 10, 8, 9, 8, 9, 7, 9, 11, 8, 5, 9, 9, 6, 9, 9, 9, 12, 12, 
16, 13, 15, 11, 13, 12, 16, 8, 14, 9, 18, 12, 12, 13, 13, 11, 12, 13, 17, 12, 14, 6, 12, 9, 15, 11, 11, 9, 11, 9, 8, 9, 9, 12, 10, 10, 9, 5, 7, 10, 12, 11, 9, 10, 5, 9, 
Heartbeat CPU 0 instructions: 50000000 cycles: 44481059 heartbeat IPC: 0.844642 cumulative IPC: 0.860174 (Simulation time: 0 hr 0 min 56 sec) 
Finished CPU 0 instructions: 30000000 cycles: 34876690 cumulative IPC: 0.860173 (Simulation time: 0 hr 0 min 56 sec) 

ChampSim completed all CPUs

Region of Interest Statistics

CPU 0 cumulative IPC: 0.860173 instructions: 30000000 cycles: 34876690
L1D TOTAL     ACCESS:    9025517  HIT:    9021516  MISS:       4001
L1D LOAD      ACCESS:    5007475  HIT:    5003634  MISS:       3841
L1D RFO       ACCESS:    4018042  HIT:    4017882  MISS:        160
L1D PREFETCH  ACCESS:          0  HIT:          0  MISS:          0
L1D WRITEBACK ACCESS:          0  HIT:          0  MISS:          0
L1D PREFETCH  REQUESTED:          0  ISSUED:          0  USEFUL:          0  USELESS:          0
L1D AVERAGE MISS LATENCY: 132.56 cycles
L1I TOTAL     ACCESS:    5662051  HIT:    5658621  MISS:       3430
L1I LOAD      ACCESS:    5662051  HIT:    5658621  MISS:       3430
L1I RFO       ACCESS:          0  HIT:          0  MISS:          0
L1I PREFETCH  ACCESS:          0  HIT:          0  MISS:          0
L1I WRITEBACK ACCESS:          0  HIT:          0  MISS:          0
L1I PREFETCH  REQUESTED:          0  ISSUED:          0  USEFUL:          0  USELESS:          0
L1I AVERAGE MISS LATENCY: 15.2755 cycles
L2C TOTAL     ACCESS:      14858  HIT:       9341  MISS:       5517
L2C LOAD      ACCESS:       7271  HIT:       4736  MISS:       2535
L2C RFO       ACCESS:        160  HIT:         41  MISS:        119
L2C PREFETCH  ACCESS:       6969  HIT:       4107  MISS:       2862
L2C WRITEBACK ACCESS:        458  HIT:        457  MISS:          1
L2C PREFETCH  REQUESTED:       7271  ISSUED:       7121  USEFUL:       1338  USELESS:       1540
L2C AVERAGE MISS LATENCY: 176.321 cycles
LLC TOTAL     ACCESS:       6304  HIT:        970  MISS:       5334
LLC LOAD      ACCESS:       2423  HIT:         76  MISS:       2347
LLC RFO       ACCESS:        119  HIT:         26  MISS:         93
LLC PREFETCH  ACCESS:       2974  HIT:        158  MISS:       2816
LLC WRITEBACK ACCESS:        788  HIT:        710  MISS:         78
LLC PREFETCH  REQUESTED:          0  ISSUED:          0  USEFUL:         45  USELESS:       2629
LLC AVERAGE MISS LATENCY: 152.601 cycles
Major fault: 0 Minor fault: 3957
CPU 0 L2C next line prefetcher final stats

DRAM Statistics
 CHANNEL 0
 RQ ROW_BUFFER_HIT:        948  ROW_BUFFER_MISS:       4308
 DBUS_CONGESTED:        408
 WQ ROW_BUFFER_HIT:        264  ROW_BUFFER_MISS:        473  FULL:          0

 AVG_CONGESTED_CYCLE: 6

CPU 0 Branch Prediction Accuracy: 95.1524% MPKI: 9.65993 Average ROB Occupancy at Mispredict: 53.4487

Branch types
NOT_BRANCH: 24021507 80.0717%
BRANCH_DIRECT_JUMP: 509951 1.69984%
BRANCH_INDIRECT: 321829 1.07276%
BRANCH_CONDITIONAL: 4616677 15.3889%
BRANCH_DIRECT_CALL: 261892 0.872973%
BRANCH_INDIRECT_CALL: 2950 0.00983333%
BRANCH_RETURN: 264844 0.882813%
BRANCH_OTHER: 0 0%

