
*** ChampSim Multicore Out-of-Order Simulator ***

Warmup Instructions: 20000000
Simulation Instructions: 30000000
Number of CPUs: 1
LLC sets: 2048
LLC ways: 16
Off-chip DRAM Size: 4096 MB Channels: 1 Width: 64-bit Data Rate: 3200 MT/s

CPU 0 runs ../traces//403.gcc-16B.champsimtrace.xz
CPU 0 Bimodal branch predictor
CPU 0 L2C next line prefetcher
12, 6, 11, 6, 10, 3, 4, 5, 3, 3, 6, 3, 7, 2, 5, 4, 3, 0, 0, 2, 2, 3, 2, 2, 1, 3, 1, 0, 0, 4, 3, 4, 3, 5, 2, 4, 4, 2, 2, 2, 3, 1, 1, 0, 1, 0, 
18, 8, 14, 5, 6, 7, 9, 5, 5, 5, 7, 6, 6, 3, 2, 4, 8, 1, 3, 4, 4, 4, 5, 2, 4, 6, 1, 4, 5, 3, 2, 2, 4, 5, 3, 3, 5, 2, 5, 3, 2, 4, 1, 2, 7, 6, 
15, 9, 11, 8, 12, 4, 8, 10, 9, 4, 12, 5, 9, 2, 5, 1, 6, 6, 7, 4, 3, 1, 7, 4, 5, 7, 4, 8, 5, 0, 6, 5, 3, 6, 7, 2, 2, 4, 3, 1, 1, 3, 3, 0, 5, 4, 
16, 12, 18, 7, 15, 4, 8, 4, 8, 9, 8, 6, 11, 3, 7, 5, 9, 9, 9, 6, 6, 7, 10, 5, 6, 4, 4, 7, 5, 4, 4, 5, 4, 2, 7, 5, 13, 8, 4, 5, 4, 5, 5, 1, 4, 5, 
20, 14, 16, 10, 12, 10, 9, 9, 15, 8, 11, 5, 6, 4, 4, 4, 6, 3, 6, 6, 9, 6, 9, 6, 4, 4, 6, 6, 6, 4, 7, 2, 5, 3, 10, 4, 5, 5, 2, 4, 5, 3, 4, 3, 7, 3, 
19, 13, 17, 6, 15, 12, 8, 9, 7, 6, 9, 6, 8, 4, 7, 3, 5, 5, 5, 7, 7, 12, 11, 5, 8, 4, 5, 7, 5, 5, 5, 9, 9, 3, 6, 8, 5, 2, 3, 4, 6, 1, 3, 2, 6, 6, 
19, 13, 16, 9, 12, 10, 9, 11, 9, 6, 10, 3, 6, 3, 9, 5, 6, 2, 4, 8, 2, 4, 8, 9, 8, 3, 5, 5, 4, 3, 7, 6, 5, 4, 5, 2, 9, 6, 3, 6, 8, 4, 5, 3, 5, 2, 
Heartbeat CPU 0 instructions: 10000001 cycles: 4675009 heartbeat IPC: 2.13903 cumulative IPC: 2.13903 (Simulation time: 0 hr 0 min 7 sec) 
21, 12, 15, 10, 10, 9, 7, 7, 12, 10, 7, 6, 4, 4, 4, 6, 10, 5, 2, 8, 7, 7, 4, 5, 3, 5, 5, 6, 3, 5, 3, 5, 8, 2, 3, 5, 6, 5, 7, 5, 4, 4, 3, 2, 5, 2, 
19, 10, 17, 10, 7, 11, 10, 8, 7, 3, 11, 4, 8, 4, 4, 6, 5, 2, 5, 5, 8, 2, 6, 3, 8, 3, 10, 5, 6, 5, 7, 4, 3, 8, 0, 7, 5, 5, 1, 4, 6, 5, 6, 3, 5, 1, 
18, 13, 17, 12, 10, 11, 11, 6, 9, 5, 6, 5, 1, 4, 7, 2, 2, 2, 1, 2, 5, 9, 3, 2, 5, 0, 2, 1, 3, 4, 3, 5, 4, 5, 6, 7, 5, 6, 4, 3, 3, 3, 6, 5, 7, 6, 
18, 11, 22, 9, 12, 6, 13, 7, 11, 8, 13, 5, 8, 6, 6, 2, 5, 3, 3, 3, 7, 1, 6, 4, 7, 7, 8, 4, 6, 2, 4, 4, 5, 3, 6, 2, 4, 3, 5, 2, 3, 1, 6, 4, 4, 3, 
17, 12, 16, 12, 13, 10, 10, 10, 11, 8, 11, 6, 10, 3, 7, 4, 4, 6, 4, 6, 3, 2, 5, 6, 6, 2, 7, 7, 7, 6, 5, 4, 5, 1, 6, 4, 5, 3, 3, 3, 4, 4, 2, 2, 4, 2, 
18, 12, 16, 8, 15, 8, 9, 6, 8, 2, 8, 3, 8, 3, 8, 8, 10, 6, 7, 8, 7, 4, 7, 4, 4, 5, 4, 1, 5, 2, 5, 4, 5, 5, 6, 4, 7, 4, 7, 5, 4, 0, 3, 7, 7, 7, 
Heartbeat CPU 0 instructions: 20000000 cycles: 9329880 heartbeat IPC: 2.14829 cumulative IPC: 2.14365 (Simulation time: 0 hr 0 min 14 sec) 

Warmup complete CPU 0 instructions: 20000004 cycles: 9329881 (Simulation time: 0 hr 0 min 14 sec) 

18, 9, 19, 8, 9, 6, 9, 7, 10, 6, 4, 5, 8, 4, 6, 3, 6, 2, 6, 5, 9, 5, 7, 3, 5, 2, 5, 11, 10, 4, 6, 4, 7, 2, 7, 5, 6, 4, 5, 7, 4, 5, 7, 4, 7, 8, 
20, 14, 21, 9, 14, 10, 13, 12, 8, 6, 10, 7, 5, 2, 9, 5, 4, 5, 4, 6, 7, 4, 10, 4, 5, 6, 5, 5, 5, 4, 7, 6, 3, 3, 5, 7, 5, 1, 7, 10, 10, 6, 7, 10, 5, 3, 
20, 14, 19, 8, 12, 14, 13, 4, 13, 7, 4, 6, 8, 5, 4, 3, 3, 3, 5, 4, 3, 5, 8, 2, 10, 4, 4, 2, 5, 4, 8, 2, 5, 2, 8, 2, 7, 4, 5, 2, 5, 3, 4, 2, 4, 3, 
18, 12, 18, 12, 8, 6, 10, 11, 11, 5, 11, 7, 8, 7, 4, 4, 3, 3, 3, 5, 2, 3, 6, 3, 7, 7, 3, 3, 1, 4, 5, 2, 3, 6, 3, 2, 4, 1, 4, 3, 7, 5, 7, 3, 5, 3, 
20, 10, 19, 12, 13, 7, 11, 6, 10, 4, 8, 6, 9, 2, 6, 2, 6, 5, 6, 3, 3, 3, 4, 2, 4, 4, 10, 8, 4, 4, 3, 6, 5, 5, 3, 7, 6, 5, 8, 4, 4, 3, 6, 4, 6, 4, 
19, 12, 14, 7, 11, 3, 12, 9, 12, 8, 9, 6, 8, 3, 11, 6, 8, 6, 5, 5, 9, 6, 9, 4, 7, 7, 4, 4, 4, 6, 7, 5, 4, 5, 6, 2, 4, 3, 6, 2, 2, 4, 4, 2, 7, 4, 
17, 14, 14, 12, 11, 10, 9, 9, 12, 6, 9, 7, 10, 5, 10, 6, 5, 2, 7, 4, 6, 8, 3, 8, 5, 7, 3, 4, 4, 3, 7, 2, 6, 5, 6, 4, 6, 6, 6, 3, 5, 2, 6, 3, 6, 3, 
Heartbeat CPU 0 instructions: 30000000 cycles: 17662346 heartbeat IPC: 1.20012 cumulative IPC: 1.20012 (Simulation time: 0 hr 0 min 21 sec) 
16, 10, 16, 11, 16, 9, 14, 11, 10, 6, 6, 9, 8, 6, 3, 3, 8, 3, 8, 6, 7, 4, 7, 5, 7, 2, 11, 4, 6, 3, 6, 5, 3, 3, 1, 6, 7, 7, 5, 4, 7, 7, 3, 4, 4, 3, 
19, 15, 14, 13, 16, 13, 7, 9, 11, 6, 7, 6, 4, 7, 7, 5, 6, 2, 10, 5, 3, 5, 4, 4, 6, 3, 9, 6, 7, 5, 4, 3, 4, 6, 8, 5, 2, 5, 7, 9, 6, 6, 7, 4, 7, 3, 
20, 14, 17, 7, 12, 10, 10, 8, 13, 4, 5, 7, 6, 7, 9, 0, 5, 4, 8, 5, 4, 4, 6, 4, 6, 3, 7, 4, 2, 6, 5, 5, 5, 6, 4, 3, 8, 2, 6, 4, 1, 4, 6, 3, 4, 4, 
20, 13, 18, 12, 10, 10, 9, 7, 8, 5, 10, 7, 6, 3, 9, 5, 4, 6, 6, 3, 5, 3, 7, 4, 4, 5, 4, 5, 4, 5, 3, 6, 4, 4, 2, 2, 2, 2, 3, 5, 3, 5, 5, 7, 5, 3, 
21, 15, 21, 14, 12, 11, 10, 7, 10, 7, 5, 5, 8, 4, 9, 4, 5, 2, 4, 2, 2, 3, 7, 4, 8, 2, 4, 4, 5, 3, 3, 2, 5, 3, 5, 3, 7, 5, 5, 3, 7, 4, 8, 6, 5, 4, 
22, 14, 22, 15, 14, 13, 10, 10, 12, 5, 8, 2, 4, 5, 8, 6, 3, 2, 4, 3, 5, 6, 3, 4, 6, 7, 3, 4, 5, 2, 6, 7, 6, 5, 3, 6, 5, 6, 7, 5, 3, 3, 10, 4, 6, 8, 
Heartbeat CPU 0 instructions: 40000000 cycles: 26022951 heartbeat IPC: 1.19609 cumulative IPC: 1.1981 (Simulation time: 0 hr 0 min 28 sec) 
20, 14, 18, 11, 14, 5, 15, 5, 7, 5, 8, 5, 11, 7, 6, 3, 4, 5, 10, 5, 6, 2, 4, 4, 5, 4, 4, 3, 4, 7, 8, 7, 5, 4, 6, 5, 5, 7, 3, 5, 4, 6, 6, 4, 4, 4, 
15, 8, 14, 11, 13, 12, 9, 6, 12, 8, 12, 5, 9, 5, 2, 2, 11, 7, 7, 5, 5, 5, 7, 8, 8, 6, 8, 3, 5, 4, 3, 6, 9, 3, 6, 3, 4, 4, 3, 4, 9, 5, 10, 7, 3, 5, 
15, 9, 18, 9, 12, 9, 11, 7, 11, 6, 8, 3, 10, 3, 8, 4, 6, 10, 7, 4, 6, 6, 7, 3, 9, 8, 8, 3, 3, 6, 5, 3, 5, 1, 5, 5, 6, 4, 4, 5, 4, 3, 5, 10, 4, 3, 
15, 12, 15, 12, 13, 7, 15, 7, 7, 7, 11, 8, 11, 6, 8, 4, 9, 2, 11, 10, 9, 5, 7, 3, 4, 4, 13, 7, 5, 6, 6, 4, 5, 3, 4, 6, 6, 4, 6, 4, 7, 6, 6, 5, 8, 9, 
14, 13, 14, 11, 18, 10, 14, 5, 12, 12, 12, 6, 10, 7, 11, 7, 9, 5, 6, 5, 5, 5, 8, 6, 4, 4, 8, 3, 9, 3, 3, 5, 3, 5, 6, 7, 3, 6, 5, 5, 6, 4, 8, 4, 7, 6, 
19, 15, 19, 12, 17, 9, 12, 11, 11, 8, 11, 5, 10, 6, 7, 4, 6, 4, 8, 3, 4, 1, 7, 4, 6, 2, 10, 4, 8, 3, 6, 1, 5, 8, 7, 0, 4, 3, 5, 4, 4, 4, 6, 3, 8, 3, 
16, 11, 19, 10, 19, 6, 11, 7, 9, 6, 9, 6, 11, 3, 4, 7, 8, 4, 7, 4, 5, 3, 3, 3, 8, 6, 11, 1, 4, 1, 6, 8, 6, 6, 8, 5, 3, 1, 5, 7, 5, 2, 4, 1, 8, 4, 
Heartbeat CPU 0 instructions: 50000000 cycles: 34495944 heartbeat IPC: 1.18022 cumulative IPC: 1.19208 (Simulation time: 0 hr 0 min 35 sec) 
Finished CPU 0 instructions: 30000001 cycles: 25166065 cumulative IPC: 1.19208 (Simulation time: 0 hr 0 min 35 sec) 

ChampSim completed all CPUs

Region of Interest Statistics

CPU 0 cumulative IPC: 1.19208 instructions: 30000001 cycles: 25166065
L1D TOTAL     ACCESS:    1941368  HIT:     443402  MISS:    1497966
L1D LOAD      ACCESS:     246158  HIT:     227577  MISS:      18581
L1D RFO       ACCESS:    1695210  HIT:     215825  MISS:    1479385
L1D PREFETCH  ACCESS:          0  HIT:          0  MISS:          0
L1D WRITEBACK ACCESS:          0  HIT:          0  MISS:          0
L1D PREFETCH  REQUESTED:          0  ISSUED:          0  USEFUL:          0  USELESS:          0
L1D AVERAGE MISS LATENCY: 34.3982 cycles
L1I TOTAL     ACCESS:    5715668  HIT:    5714197  MISS:       1471
L1I LOAD      ACCESS:    5715668  HIT:    5714197  MISS:       1471
L1I RFO       ACCESS:          0  HIT:          0  MISS:          0
L1I PREFETCH  ACCESS:          0  HIT:          0  MISS:          0
L1I WRITEBACK ACCESS:          0  HIT:          0  MISS:          0
L1I PREFETCH  REQUESTED:          0  ISSUED:          0  USEFUL:          0  USELESS:          0
L1I AVERAGE MISS LATENCY: 40.1863 cycles
L2C TOTAL     ACCESS:    3003073  HIT:    2033675  MISS:     969398
L2C LOAD      ACCESS:      20052  HIT:       6881  MISS:      13171
L2C RFO       ACCESS:    1479385  HIT:     536162  MISS:     943223
L2C PREFETCH  ACCESS:      19160  HIT:       6156  MISS:      13004
L2C WRITEBACK ACCESS:    1484476  HIT:    1484476  MISS:          0
L2C PREFETCH  REQUESTED:      20052  ISSUED:      19833  USEFUL:       3332  USELESS:       9668
L2C AVERAGE MISS LATENCY: 30.8152 cycles
LLC TOTAL     ACCESS:    1915614  HIT:    1909820  MISS:       5794
LLC LOAD      ACCESS:      13124  HIT:      10486  MISS:       2638
LLC RFO       ACCESS:     943213  HIT:     942914  MISS:        299
LLC PREFETCH  ACCESS:      13061  HIT:      10204  MISS:       2857
LLC WRITEBACK ACCESS:     946216  HIT:     946216  MISS:          0
LLC PREFETCH  REQUESTED:          0  ISSUED:          0  USEFUL:        377  USELESS:          4
LLC AVERAGE MISS LATENCY: 135.932 cycles
Major fault: 0 Minor fault: 883
CPU 0 L2C next line prefetcher final stats

DRAM Statistics
 CHANNEL 0
 RQ ROW_BUFFER_HIT:       2224  ROW_BUFFER_MISS:       3570
 DBUS_CONGESTED:        216
 WQ ROW_BUFFER_HIT:          0  ROW_BUFFER_MISS:          0  FULL:          0

 AVG_CONGESTED_CYCLE: 5

CPU 0 Branch Prediction Accuracy: 99.6374% MPKI: 0.711733 Average ROB Occupancy at Mispredict: 44.5444

Branch types
NOT_BRANCH: 24111311 80.371%
BRANCH_DIRECT_JUMP: 30967 0.103223%
BRANCH_INDIRECT: 8169 0.02723%
BRANCH_CONDITIONAL: 5791677 19.3056%
BRANCH_DIRECT_CALL: 28494 0.09498%
BRANCH_INDIRECT_CALL: 443 0.00147667%
BRANCH_RETURN: 28937 0.0964567%
BRANCH_OTHER: 0 0%

