
*** ChampSim Multicore Out-of-Order Simulator ***

Warmup Instructions: 20000000
Simulation Instructions: 30000000
Number of CPUs: 1
LLC sets: 2048
LLC ways: 16
Off-chip DRAM Size: 4096 MB Channels: 1 Width: 64-bit Data Rate: 3200 MT/s

CPU 0 runs ../traces//403.gcc-16B.champsimtrace.xz
CPU 0 Bimodal branch predictor
CPU 0 L2C next line prefetcher
1, 3, 5, 0, 5, 0, 1, 2, 0, 0, 0, 0, 1, 1, 3, 2, 1, 0, 0, 0, 0, 1, 1, 1, 0, 2, 0, 0, 0, 1, 1, 1, 1, 0, 1, 1, 2, 0, 1, 0, 1, 1, 1, 0, 0, 0, 
4, 1, 3, 0, 3, 0, 3, 0, 2, 1, 3, 2, 1, 0, 0, 1, 1, 0, 0, 0, 1, 0, 1, 0, 0, 0, 1, 0, 0, 1, 0, 0, 0, 0, 1, 0, 0, 0, 1, 1, 0, 1, 1, 0, 1, 0, 
2, 5, 4, 2, 1, 0, 0, 0, 2, 1, 4, 0, 3, 1, 1, 1, 4, 1, 1, 1, 0, 0, 2, 1, 3, 0, 0, 1, 0, 0, 1, 0, 0, 1, 2, 0, 0, 0, 0, 0, 1, 1, 0, 0, 1, 0, 
4, 4, 3, 3, 7, 1, 3, 0, 4, 1, 4, 1, 3, 0, 2, 1, 5, 0, 3, 0, 4, 1, 4, 0, 3, 0, 1, 0, 1, 0, 0, 0, 1, 0, 1, 1, 3, 2, 1, 1, 0, 0, 0, 0, 0, 1, 
5, 4, 4, 1, 3, 0, 5, 2, 6, 0, 2, 1, 3, 1, 4, 0, 4, 1, 4, 1, 4, 0, 3, 1, 1, 1, 0, 1, 2, 2, 2, 0, 0, 2, 3, 0, 0, 0, 1, 1, 1, 0, 0, 0, 0, 0, 
5, 5, 1, 1, 1, 1, 5, 1, 2, 0, 0, 0, 1, 1, 1, 0, 1, 1, 0, 0, 0, 0, 1, 0, 1, 1, 0, 0, 0, 2, 0, 0, 1, 0, 1, 1, 1, 0, 0, 0, 0, 0, 0, 0, 1, 1, 
2, 3, 2, 4, 3, 0, 1, 0, 1, 0, 1, 0, 3, 1, 2, 0, 0, 0, 0, 0, 0, 0, 0, 0, 0, 0, 0, 0, 0, 0, 2, 0, 0, 0, 0, 0, 0, 0, 0, 0, 2, 1, 0, 0, 0, 0, 
Heartbeat CPU 0 instructions: 10000001 cycles: 4675060 heartbeat IPC: 2.13901 cumulative IPC: 2.13901 (Simulation time: 0 hr 0 min 6 sec) 
0, 3, 0, 0, 1, 1, 0, 2, 0, 1, 0, 0, 1, 0, 0, 0, 2, 0, 0, 0, 0, 1, 1, 0, 0, 1, 0, 0, 0, 2, 0, 0, 0, 0, 0, 0, 1, 1, 1, 0, 0, 0, 0, 0, 0, 0, 
3, 5, 3, 2, 0, 3, 0, 1, 0, 0, 0, 1, 1, 0, 1, 1, 1, 1, 0, 0, 0, 1, 0, 0, 0, 0, 1, 0, 0, 1, 0, 0, 0, 0, 0, 0, 0, 0, 0, 0, 0, 0, 0, 0, 0, 0, 
4, 3, 0, 2, 3, 1, 0, 0, 1, 1, 1, 1, 1, 1, 0, 0, 0, 0, 1, 0, 0, 0, 0, 0, 0, 1, 0, 0, 0, 0, 0, 0, 0, 0, 0, 0, 1, 0, 2, 0, 1, 0, 0, 0, 0, 0, 
2, 1, 6, 2, 2, 2, 2, 0, 5, 0, 3, 2, 2, 1, 1, 0, 2, 0, 0, 0, 1, 0, 1, 0, 0, 0, 0, 0, 0, 1, 0, 0, 1, 0, 0, 0, 1, 0, 1, 0, 0, 0, 0, 0, 0, 0, 
3, 5, 0, 0, 2, 3, 5, 0, 4, 0, 4, 0, 1, 0, 2, 0, 0, 1, 0, 0, 1, 0, 1, 2, 0, 0, 0, 0, 0, 0, 0, 0, 0, 0, 0, 0, 0, 0, 0, 0, 0, 0, 0, 0, 0, 0, 
6, 3, 2, 2, 3, 3, 1, 0, 3, 0, 4, 3, 1, 1, 1, 2, 0, 0, 0, 0, 1, 1, 0, 0, 0, 0, 1, 0, 2, 0, 0, 0, 1, 0, 1, 0, 1, 0, 1, 0, 0, 0, 0, 1, 0, 1, 
Heartbeat CPU 0 instructions: 20000000 cycles: 9329954 heartbeat IPC: 2.14828 cumulative IPC: 2.14363 (Simulation time: 0 hr 0 min 13 sec) 

Warmup complete CPU 0 instructions: 20000004 cycles: 9329955 (Simulation time: 0 hr 0 min 13 sec) 

0, 4, 3, 2, 2, 0, 1, 0, 4, 0, 1, 0, 1, 1, 1, 0, 1, 0, 2, 0, 0, 0, 0, 0, 0, 0, 0, 1, 1, 0, 1, 1, 0, 0, 0, 1, 0, 0, 1, 1, 0, 0, 0, 1, 1, 1, 
0, 1, 2, 4, 2, 4, 1, 2, 2, 1, 2, 1, 0, 1, 1, 1, 0, 0, 0, 0, 2, 0, 0, 0, 1, 0, 0, 0, 0, 0, 0, 0, 0, 0, 0, 0, 0, 0, 0, 0, 1, 0, 0, 1, 0, 0, 
1, 4, 2, 2, 1, 1, 0, 3, 2, 1, 0, 0, 1, 1, 0, 1, 0, 2, 0, 0, 0, 0, 2, 1, 1, 1, 1, 1, 1, 0, 0, 0, 0, 0, 1, 0, 0, 1, 0, 0, 2, 0, 1, 0, 0, 0, 
4, 3, 1, 3, 4, 4, 1, 3, 1, 1, 1, 1, 0, 1, 0, 1, 0, 0, 0, 0, 0, 0, 1, 1, 0, 0, 0, 0, 0, 0, 1, 0, 0, 0, 0, 0, 0, 0, 0, 1, 2, 0, 0, 0, 0, 0, 
1, 0, 3, 2, 2, 3, 2, 0, 3, 0, 1, 1, 0, 0, 0, 0, 1, 0, 0, 0, 0, 0, 1, 1, 0, 0, 1, 0, 0, 0, 0, 0, 0, 0, 0, 0, 0, 0, 0, 1, 0, 0, 0, 0, 0, 0, 
5, 4, 4, 2, 4, 2, 3, 1, 1, 1, 3, 0, 0, 0, 1, 0, 0, 0, 0, 0, 1, 0, 1, 1, 1, 1, 0, 0, 0, 0, 2, 0, 0, 0, 0, 0, 1, 0, 1, 1, 0, 0, 0, 0, 1, 0, 
0, 4, 6, 2, 3, 0, 1, 1, 2, 0, 2, 0, 2, 0, 1, 0, 2, 0, 0, 0, 0, 0, 0, 0, 0, 0, 1, 0, 0, 0, 1, 1, 2, 0, 0, 0, 0, 1, 0, 0, 1, 0, 0, 0, 0, 0, 
Heartbeat CPU 0 instructions: 30000000 cycles: 17661859 heartbeat IPC: 1.20021 cumulative IPC: 1.20021 (Simulation time: 0 hr 0 min 20 sec) 
2, 5, 5, 1, 5, 0, 6, 0, 5, 0, 3, 1, 3, 0, 0, 0, 3, 0, 1, 0, 1, 2, 2, 0, 0, 1, 1, 2, 3, 0, 0, 0, 0, 0, 0, 0, 3, 0, 2, 0, 0, 0, 0, 0, 1, 0, 
5, 0, 2, 1, 4, 1, 3, 1, 3, 1, 5, 0, 2, 1, 1, 0, 1, 1, 2, 0, 1, 1, 1, 0, 2, 0, 1, 0, 1, 1, 2, 0, 1, 0, 1, 1, 1, 0, 0, 1, 0, 0, 1, 0, 0, 0, 
1, 3, 1, 1, 2, 1, 2, 1, 2, 1, 2, 0, 2, 0, 1, 0, 1, 0, 0, 0, 0, 0, 0, 0, 0, 0, 0, 0, 0, 0, 0, 0, 0, 0, 0, 0, 1, 1, 1, 0, 0, 0, 0, 0, 0, 0, 
1, 3, 1, 2, 3, 4, 1, 0, 0, 1, 1, 0, 0, 2, 0, 1, 1, 0, 0, 0, 0, 0, 0, 0, 0, 0, 0, 0, 0, 0, 0, 0, 0, 0, 0, 0, 0, 0, 0, 0, 1, 0, 0, 0, 0, 0, 
2, 1, 1, 3, 0, 2, 1, 1, 0, 0, 0, 0, 0, 0, 1, 0, 0, 1, 0, 0, 0, 0, 0, 0, 0, 0, 0, 0, 0, 1, 0, 0, 0, 0, 0, 0, 0, 0, 0, 0, 0, 0, 0, 0, 0, 0, 
4, 3, 3, 0, 3, 1, 2, 1, 0, 0, 2, 1, 0, 0, 0, 1, 0, 1, 0, 0, 3, 0, 0, 0, 0, 0, 0, 2, 0, 0, 0, 0, 0, 0, 1, 0, 0, 0, 0, 0, 0, 0, 0, 0, 1, 0, 
Heartbeat CPU 0 instructions: 40000000 cycles: 26020189 heartbeat IPC: 1.19641 cumulative IPC: 1.19831 (Simulation time: 0 hr 0 min 27 sec) 
1, 1, 1, 4, 0, 2, 0, 0, 0, 1, 1, 1, 1, 1, 1, 0, 1, 1, 0, 0, 0, 0, 0, 0, 1, 1, 0, 2, 1, 1, 1, 0, 1, 0, 1, 1, 0, 0, 0, 0, 0, 0, 0, 0, 0, 0, 
2, 4, 5, 3, 7, 3, 2, 3, 6, 1, 4, 2, 1, 0, 0, 1, 1, 0, 0, 1, 1, 0, 2, 1, 0, 1, 1, 0, 1, 0, 1, 0, 0, 0, 1, 0, 1, 0, 0, 0, 3, 0, 1, 0, 0, 0, 
1, 1, 4, 2, 4, 3, 7, 0, 5, 1, 3, 3, 3, 1, 4, 1, 2, 0, 2, 1, 2, 0, 3, 0, 0, 0, 1, 0, 1, 0, 1, 0, 0, 0, 1, 0, 1, 0, 1, 0, 0, 1, 0, 1, 0, 2, 
2, 5, 7, 1, 8, 0, 3, 1, 1, 0, 5, 0, 5, 1, 6, 0, 6, 0, 3, 0, 2, 0, 2, 1, 3, 0, 3, 0, 1, 1, 1, 0, 2, 0, 2, 0, 0, 0, 1, 1, 0, 0, 0, 0, 0, 2, 
6, 5, 6, 2, 4, 2, 2, 1, 2, 1, 6, 1, 3, 1, 0, 1, 1, 0, 3, 0, 3, 0, 2, 0, 2, 1, 2, 0, 3, 0, 1, 0, 1, 0, 0, 0, 0, 0, 0, 0, 1, 0, 0, 1, 0, 0, 
2, 2, 3, 0, 5, 0, 4, 1, 1, 0, 3, 0, 1, 0, 4, 0, 1, 1, 0, 1, 0, 0, 0, 0, 0, 1, 0, 0, 0, 0, 0, 0, 0, 0, 0, 0, 0, 0, 1, 0, 1, 0, 0, 0, 1, 0, 
2, 1, 4, 2, 2, 1, 4, 2, 2, 0, 1, 0, 1, 1, 1, 2, 0, 1, 0, 0, 0, 1, 0, 0, 0, 0, 0, 0, 0, 0, 0, 0, 1, 0, 0, 0, 0, 0, 0, 0, 0, 0, 1, 0, 0, 0, 
Heartbeat CPU 0 instructions: 50000000 cycles: 34488541 heartbeat IPC: 1.18087 cumulative IPC: 1.19244 (Simulation time: 0 hr 0 min 34 sec) 
Finished CPU 0 instructions: 30000001 cycles: 25158588 cumulative IPC: 1.19244 (Simulation time: 0 hr 0 min 34 sec) 

ChampSim completed all CPUs

Region of Interest Statistics

CPU 0 cumulative IPC: 1.19244 instructions: 30000001 cycles: 25158588
L1D TOTAL     ACCESS:    1941522  HIT:     443556  MISS:    1497966
L1D LOAD      ACCESS:     246271  HIT:     227690  MISS:      18581
L1D RFO       ACCESS:    1695251  HIT:     215866  MISS:    1479385
L1D PREFETCH  ACCESS:          0  HIT:          0  MISS:          0
L1D WRITEBACK ACCESS:          0  HIT:          0  MISS:          0
L1D PREFETCH  REQUESTED:          0  ISSUED:          0  USEFUL:          0  USELESS:          0
L1D AVERAGE MISS LATENCY: 34.4272 cycles
L1I TOTAL     ACCESS:    5715664  HIT:    5714193  MISS:       1471
L1I LOAD      ACCESS:    5715664  HIT:    5714193  MISS:       1471
L1I RFO       ACCESS:          0  HIT:          0  MISS:          0
L1I PREFETCH  ACCESS:          0  HIT:          0  MISS:          0
L1I WRITEBACK ACCESS:          0  HIT:          0  MISS:          0
L1I PREFETCH  REQUESTED:          0  ISSUED:          0  USEFUL:          0  USELESS:          0
L1I AVERAGE MISS LATENCY: 42.6485 cycles
L2C TOTAL     ACCESS:    3003136  HIT:    2031217  MISS:     971919
L2C LOAD      ACCESS:      20052  HIT:       6528  MISS:      13524
L2C RFO       ACCESS:    1479385  HIT:     534548  MISS:     944837
L2C PREFETCH  ACCESS:      19223  HIT:       5665  MISS:      13558
L2C WRITEBACK ACCESS:    1484476  HIT:    1484476  MISS:          0
L2C PREFETCH  REQUESTED:      20052  ISSUED:      19690  USEFUL:       2964  USELESS:      10590
L2C AVERAGE MISS LATENCY: 30.8723 cycles
LLC TOTAL     ACCESS:    1919745  HIT:    1913554  MISS:       6191
LLC LOAD      ACCESS:      13453  HIT:      10941  MISS:       2512
LLC RFO       ACCESS:     944834  HIT:     944526  MISS:        308
LLC PREFETCH  ACCESS:      13632  HIT:      10261  MISS:       3371
LLC WRITEBACK ACCESS:     947826  HIT:     947826  MISS:          0
LLC PREFETCH  REQUESTED:          0  ISSUED:          0  USEFUL:        507  USELESS:         15
LLC AVERAGE MISS LATENCY: 136.776 cycles
Major fault: 0 Minor fault: 883
CPU 0 L2C next line prefetcher final stats

DRAM Statistics
 CHANNEL 0
 RQ ROW_BUFFER_HIT:       2320  ROW_BUFFER_MISS:       3871
 DBUS_CONGESTED:        296
 WQ ROW_BUFFER_HIT:          0  ROW_BUFFER_MISS:          1  FULL:          0

 AVG_CONGESTED_CYCLE: 6

CPU 0 Branch Prediction Accuracy: 99.6374% MPKI: 0.711733 Average ROB Occupancy at Mispredict: 44.3549

Branch types
NOT_BRANCH: 24111311 80.371%
BRANCH_DIRECT_JUMP: 30967 0.103223%
BRANCH_INDIRECT: 8169 0.02723%
BRANCH_CONDITIONAL: 5791677 19.3056%
BRANCH_DIRECT_CALL: 28494 0.09498%
BRANCH_INDIRECT_CALL: 443 0.00147667%
BRANCH_RETURN: 28937 0.0964567%
BRANCH_OTHER: 0 0%

