
*** ChampSim Multicore Out-of-Order Simulator ***

Warmup Instructions: 20000000
Simulation Instructions: 30000000
Number of CPUs: 1
LLC sets: 1024
LLC ways: 64
Off-chip DRAM Size: 4096 MB Channels: 1 Width: 64-bit Data Rate: 3200 MT/s

CPU 0 runs ../traces//cryptominisat-high-30K-2423B.champsimtrace.xz
CPU 0 Bimodal branch predictor
Initialize DRRIP state
bimodal-no-no-no-no-drrip-1core: src/cache.cc:1334: virtual int CACHE::add_rq(PACKET*): Assertion `0' failed.
